<routes>
    <vTypeDistribution id="mixed">
        <vType id="car" vClass="passenger" speedDev="0.2" latAlignment="compact" probability="0.6"/>
        <vType id="moped" vClass="moped" speedDev="0.4" latAlignment="compact" probability="0.4"/>
    </vTypeDistribution>
    <route id="r0" edges="51o 1i 2o 52i"/>
    <route id="r1" edges="51o 1i 4o 54i"/>
    <route id="r2" edges="51o 1i 3o 53i"/>
    <route id="r3" edges="54o 4i 3o 53i"/>
    <route id="r4" edges="54o 4i 1o 51i"/>
    <route id="r5" edges="54o 4i 2o 52i"/>
    <route id="r6" edges="52o 2i 1o 51i"/>
    <route id="r7" edges="52o 2i 4o 54i"/>
    <route id="r8" edges="52o 2i 3o 53i"/>
    <route id="r9" edges="53o 3i 4o 54i"/>
    <route id="r10" edges="53o 3i 1o 51i"/>
    <route id="r11" edges="53o 3i 2o 52i"/>
    <vehicle id="r6_0" type="mixed" route="r6" depart="36" departPosLat="random"/>
    <vehicle id="r0_1" type="mixed" route="r0" depart="37" departPosLat="random"/>
    <vehicle id="r2_2" type="mixed" route="r2" depart="42" departPosLat="random"/>
    <vehicle id="r3_3" type="mixed" route="r3" depart="48" departPosLat="random"/>
    <vehicle id="r8_4" type="mixed" route="r8" depart="52" departPosLat="random"/>
    <vehicle id="r6_5" type="mixed" route="r6" depart="53" departPosLat="random"/>
    <vehicle id="r7_6" type="mixed" route="r7" depart="55" departPosLat="random"/>
    <vehicle id="r2_7" type="mixed" route="r2" depart="60" departPosLat="random"/>
    <vehicle id="r5_8" type="mixed" route="r5" depart="61" departPosLat="random"/>
    <vehicle id="r7_9" type="mixed" route="r7" depart="62" departPosLat="random"/>
    <vehicle id="r4_10" type="mixed" route="r4" depart="65" departPosLat="random"/>
    <vehicle id="r6_11" type="mixed" route="r6" depart="68" departPosLat="random"/>
    <vehicle id="r3_12" type="mixed" route="r3" depart="68" departPosLat="random"/>
    <vehicle id="r5_13" type="mixed" route="r5" depart="71" departPosLat="random"/>
    <vehicle id="r2_14" type="mixed" route="r2" depart="72" departPosLat="random"/>
    <vehicle id="r4_15" type="mixed" route="r4" depart="77" departPosLat="random"/>
    <vehicle id="r6_16" type="mixed" route="r6" depart="78" departPosLat="random"/>
    <vehicle id="r3_17" type="mixed" route="r3" depart="80" departPosLat="random"/>
    <vehicle id="r6_18" type="mixed" route="r6" depart="80" departPosLat="random"/>
    <vehicle id="r5_19" type="mixed" route="r5" depart="82" departPosLat="random"/>
    <vehicle id="r8_20" type="mixed" route="r8" depart="82" departPosLat="random"/>
    <vehicle id="r1_21" type="mixed" route="r1" depart="85" departPosLat="random"/>
    <vehicle id="r6_22" type="mixed" route="r6" depart="88" departPosLat="random"/>
    <vehicle id="r3_23" type="mixed" route="r3" depart="89" departPosLat="random"/>
    <vehicle id="r1_24" type="mixed" route="r1" depart="92" departPosLat="random"/>
    <vehicle id="r10_25" type="mixed" route="r10" depart="94" departPosLat="random"/>
    <vehicle id="r3_26" type="mixed" route="r3" depart="96" departPosLat="random"/>
    <vehicle id="r4_27" type="mixed" route="r4" depart="97" departPosLat="random"/>
    <vehicle id="r10_28" type="mixed" route="r10" depart="97" departPosLat="random"/>
    <vehicle id="r11_29" type="mixed" route="r11" depart="98" departPosLat="random"/>
    <vehicle id="r3_30" type="mixed" route="r3" depart="100" departPosLat="random"/>
    <vehicle id="r8_31" type="mixed" route="r8" depart="102" departPosLat="random"/>
    <vehicle id="r0_32" type="mixed" route="r0" depart="102" departPosLat="random"/>
    <vehicle id="r6_33" type="mixed" route="r6" depart="102" departPosLat="random"/>
    <vehicle id="r8_34" type="mixed" route="r8" depart="105" departPosLat="random"/>
    <vehicle id="r7_35" type="mixed" route="r7" depart="108" departPosLat="random"/>
    <vehicle id="r4_36" type="mixed" route="r4" depart="108" departPosLat="random"/>
    <vehicle id="r8_37" type="mixed" route="r8" depart="108" departPosLat="random"/>
    <vehicle id="r8_38" type="mixed" route="r8" depart="108" departPosLat="random"/>
    <vehicle id="r8_39" type="mixed" route="r8" depart="109" departPosLat="random"/>
    <vehicle id="r10_40" type="mixed" route="r10" depart="109" departPosLat="random"/>
    <vehicle id="r10_41" type="mixed" route="r10" depart="115" departPosLat="random"/>
    <vehicle id="r10_42" type="mixed" route="r10" depart="115" departPosLat="random"/>
    <vehicle id="r3_43" type="mixed" route="r3" depart="115" departPosLat="random"/>
    <vehicle id="r4_44" type="mixed" route="r4" depart="120" departPosLat="random"/>
    <vehicle id="r7_45" type="mixed" route="r7" depart="120" departPosLat="random"/>
    <vehicle id="r3_46" type="mixed" route="r3" depart="122" departPosLat="random"/>
    <vehicle id="r4_47" type="mixed" route="r4" depart="122" departPosLat="random"/>
    <vehicle id="r8_48" type="mixed" route="r8" depart="126" departPosLat="random"/>
    <vehicle id="r0_49" type="mixed" route="r0" depart="128" departPosLat="random"/>
    <vehicle id="r1_50" type="mixed" route="r1" depart="128" departPosLat="random"/>
    <vehicle id="r2_51" type="mixed" route="r2" depart="130" departPosLat="random"/>
    <vehicle id="r2_52" type="mixed" route="r2" depart="131" departPosLat="random"/>
    <vehicle id="r1_53" type="mixed" route="r1" depart="134" departPosLat="random"/>
    <vehicle id="r1_54" type="mixed" route="r1" depart="135" departPosLat="random"/>
    <vehicle id="r8_55" type="mixed" route="r8" depart="136" departPosLat="random"/>
    <vehicle id="r11_56" type="mixed" route="r11" depart="137" departPosLat="random"/>
    <vehicle id="r3_57" type="mixed" route="r3" depart="138" departPosLat="random"/>
    <vehicle id="r9_58" type="mixed" route="r9" depart="139" departPosLat="random"/>
    <vehicle id="r11_59" type="mixed" route="r11" depart="139" departPosLat="random"/>
    <vehicle id="r7_60" type="mixed" route="r7" depart="140" departPosLat="random"/>
    <vehicle id="r11_61" type="mixed" route="r11" depart="142" departPosLat="random"/>
    <vehicle id="r11_62" type="mixed" route="r11" depart="142" departPosLat="random"/>
    <vehicle id="r9_63" type="mixed" route="r9" depart="143" departPosLat="random"/>
    <vehicle id="r2_64" type="mixed" route="r2" depart="145" departPosLat="random"/>
    <vehicle id="r6_65" type="mixed" route="r6" depart="146" departPosLat="random"/>
    <vehicle id="r1_66" type="mixed" route="r1" depart="146" departPosLat="random"/>
    <vehicle id="r3_67" type="mixed" route="r3" depart="148" departPosLat="random"/>
    <vehicle id="r1_68" type="mixed" route="r1" depart="148" departPosLat="random"/>
    <vehicle id="r3_69" type="mixed" route="r3" depart="148" departPosLat="random"/>
    <vehicle id="r7_70" type="mixed" route="r7" depart="149" departPosLat="random"/>
    <vehicle id="r1_71" type="mixed" route="r1" depart="149" departPosLat="random"/>
    <vehicle id="r8_72" type="mixed" route="r8" depart="151" departPosLat="random"/>
    <vehicle id="r2_73" type="mixed" route="r2" depart="152" departPosLat="random"/>
    <vehicle id="r3_74" type="mixed" route="r3" depart="152" departPosLat="random"/>
    <vehicle id="r3_75" type="mixed" route="r3" depart="154" departPosLat="random"/>
    <vehicle id="r8_76" type="mixed" route="r8" depart="155" departPosLat="random"/>
    <vehicle id="r11_77" type="mixed" route="r11" depart="155" departPosLat="random"/>
    <vehicle id="r1_78" type="mixed" route="r1" depart="156" departPosLat="random"/>
    <vehicle id="r8_79" type="mixed" route="r8" depart="157" departPosLat="random"/>
    <vehicle id="r5_80" type="mixed" route="r5" depart="157" departPosLat="random"/>
    <vehicle id="r6_81" type="mixed" route="r6" depart="157" departPosLat="random"/>
    <vehicle id="r3_82" type="mixed" route="r3" depart="160" departPosLat="random"/>
    <vehicle id="r0_83" type="mixed" route="r0" depart="160" departPosLat="random"/>
    <vehicle id="r3_84" type="mixed" route="r3" depart="160" departPosLat="random"/>
    <vehicle id="r11_85" type="mixed" route="r11" depart="163" departPosLat="random"/>
    <vehicle id="r1_86" type="mixed" route="r1" depart="163" departPosLat="random"/>
    <vehicle id="r8_87" type="mixed" route="r8" depart="164" departPosLat="random"/>
    <vehicle id="r9_88" type="mixed" route="r9" depart="164" departPosLat="random"/>
    <vehicle id="r10_89" type="mixed" route="r10" depart="165" departPosLat="random"/>
    <vehicle id="r5_90" type="mixed" route="r5" depart="168" departPosLat="random"/>
    <vehicle id="r6_91" type="mixed" route="r6" depart="169" departPosLat="random"/>
    <vehicle id="r2_92" type="mixed" route="r2" depart="171" departPosLat="random"/>
    <vehicle id="r1_93" type="mixed" route="r1" depart="171" departPosLat="random"/>
    <vehicle id="r6_94" type="mixed" route="r6" depart="172" departPosLat="random"/>
    <vehicle id="r6_95" type="mixed" route="r6" depart="172" departPosLat="random"/>
    <vehicle id="r10_96" type="mixed" route="r10" depart="174" departPosLat="random"/>
    <vehicle id="r11_97" type="mixed" route="r11" depart="174" departPosLat="random"/>
    <vehicle id="r8_98" type="mixed" route="r8" depart="175" departPosLat="random"/>
    <vehicle id="r3_99" type="mixed" route="r3" depart="175" departPosLat="random"/>
    <vehicle id="r9_100" type="mixed" route="r9" depart="176" departPosLat="random"/>
    <vehicle id="r7_101" type="mixed" route="r7" depart="176" departPosLat="random"/>
    <vehicle id="r2_102" type="mixed" route="r2" depart="176" departPosLat="random"/>
    <vehicle id="r6_103" type="mixed" route="r6" depart="177" departPosLat="random"/>
    <vehicle id="r1_104" type="mixed" route="r1" depart="177" departPosLat="random"/>
    <vehicle id="r2_105" type="mixed" route="r2" depart="178" departPosLat="random"/>
    <vehicle id="r2_106" type="mixed" route="r2" depart="178" departPosLat="random"/>
    <vehicle id="r11_107" type="mixed" route="r11" depart="179" departPosLat="random"/>
    <vehicle id="r6_108" type="mixed" route="r6" depart="179" departPosLat="random"/>
    <vehicle id="r10_109" type="mixed" route="r10" depart="179" departPosLat="random"/>
    <vehicle id="r2_110" type="mixed" route="r2" depart="180" departPosLat="random"/>
    <vehicle id="r0_111" type="mixed" route="r0" depart="182" departPosLat="random"/>
    <vehicle id="r2_112" type="mixed" route="r2" depart="184" departPosLat="random"/>
    <vehicle id="r8_113" type="mixed" route="r8" depart="185" departPosLat="random"/>
    <vehicle id="r1_114" type="mixed" route="r1" depart="185" departPosLat="random"/>
    <vehicle id="r0_115" type="mixed" route="r0" depart="185" departPosLat="random"/>
    <vehicle id="r9_116" type="mixed" route="r9" depart="186" departPosLat="random"/>
    <vehicle id="r3_117" type="mixed" route="r3" depart="186" departPosLat="random"/>
    <vehicle id="r10_118" type="mixed" route="r10" depart="190" departPosLat="random"/>
    <vehicle id="r3_119" type="mixed" route="r3" depart="190" departPosLat="random"/>
    <vehicle id="r3_120" type="mixed" route="r3" depart="191" departPosLat="random"/>
    <vehicle id="r9_121" type="mixed" route="r9" depart="192" departPosLat="random"/>
    <vehicle id="r2_122" type="mixed" route="r2" depart="193" departPosLat="random"/>
    <vehicle id="r11_123" type="mixed" route="r11" depart="194" departPosLat="random"/>
    <vehicle id="r7_124" type="mixed" route="r7" depart="194" departPosLat="random"/>
    <vehicle id="r0_125" type="mixed" route="r0" depart="194" departPosLat="random"/>
    <vehicle id="r7_126" type="mixed" route="r7" depart="194" departPosLat="random"/>
    <vehicle id="r8_127" type="mixed" route="r8" depart="195" departPosLat="random"/>
    <vehicle id="r5_128" type="mixed" route="r5" depart="196" departPosLat="random"/>
    <vehicle id="r6_129" type="mixed" route="r6" depart="198" departPosLat="random"/>
    <vehicle id="r2_130" type="mixed" route="r2" depart="199" departPosLat="random"/>
    <vehicle id="r6_131" type="mixed" route="r6" depart="202" departPosLat="random"/>
    <vehicle id="r3_132" type="mixed" route="r3" depart="202" departPosLat="random"/>
    <vehicle id="r4_133" type="mixed" route="r4" depart="203" departPosLat="random"/>
    <vehicle id="r2_134" type="mixed" route="r2" depart="203" departPosLat="random"/>
    <vehicle id="r11_135" type="mixed" route="r11" depart="204" departPosLat="random"/>
    <vehicle id="r0_136" type="mixed" route="r0" depart="204" departPosLat="random"/>
    <vehicle id="r7_137" type="mixed" route="r7" depart="205" departPosLat="random"/>
    <vehicle id="r9_138" type="mixed" route="r9" depart="206" departPosLat="random"/>
    <vehicle id="r8_139" type="mixed" route="r8" depart="206" departPosLat="random"/>
    <vehicle id="r9_140" type="mixed" route="r9" depart="206" departPosLat="random"/>
    <vehicle id="r6_141" type="mixed" route="r6" depart="209" departPosLat="random"/>
    <vehicle id="r4_142" type="mixed" route="r4" depart="209" departPosLat="random"/>
    <vehicle id="r10_143" type="mixed" route="r10" depart="210" departPosLat="random"/>
    <vehicle id="r9_144" type="mixed" route="r9" depart="210" departPosLat="random"/>
    <vehicle id="r0_145" type="mixed" route="r0" depart="211" departPosLat="random"/>
    <vehicle id="r4_146" type="mixed" route="r4" depart="211" departPosLat="random"/>
    <vehicle id="r4_147" type="mixed" route="r4" depart="211" departPosLat="random"/>
    <vehicle id="r1_148" type="mixed" route="r1" depart="212" departPosLat="random"/>
    <vehicle id="r6_149" type="mixed" route="r6" depart="215" departPosLat="random"/>
    <vehicle id="r9_150" type="mixed" route="r9" depart="215" departPosLat="random"/>
    <vehicle id="r9_151" type="mixed" route="r9" depart="216" departPosLat="random"/>
    <vehicle id="r8_152" type="mixed" route="r8" depart="216" departPosLat="random"/>
    <vehicle id="r7_153" type="mixed" route="r7" depart="217" departPosLat="random"/>
    <vehicle id="r6_154" type="mixed" route="r6" depart="218" departPosLat="random"/>
    <vehicle id="r3_155" type="mixed" route="r3" depart="218" departPosLat="random"/>
    <vehicle id="r0_156" type="mixed" route="r0" depart="218" departPosLat="random"/>
    <vehicle id="r6_157" type="mixed" route="r6" depart="219" departPosLat="random"/>
    <vehicle id="r1_158" type="mixed" route="r1" depart="221" departPosLat="random"/>
    <vehicle id="r5_159" type="mixed" route="r5" depart="221" departPosLat="random"/>
    <vehicle id="r9_160" type="mixed" route="r9" depart="221" departPosLat="random"/>
    <vehicle id="r10_161" type="mixed" route="r10" depart="224" departPosLat="random"/>
    <vehicle id="r6_162" type="mixed" route="r6" depart="224" departPosLat="random"/>
    <vehicle id="r4_163" type="mixed" route="r4" depart="224" departPosLat="random"/>
    <vehicle id="r5_164" type="mixed" route="r5" depart="224" departPosLat="random"/>
    <vehicle id="r5_165" type="mixed" route="r5" depart="225" departPosLat="random"/>
    <vehicle id="r11_166" type="mixed" route="r11" depart="226" departPosLat="random"/>
    <vehicle id="r6_167" type="mixed" route="r6" depart="226" departPosLat="random"/>
    <vehicle id="r9_168" type="mixed" route="r9" depart="227" departPosLat="random"/>
    <vehicle id="r2_169" type="mixed" route="r2" depart="227" departPosLat="random"/>
    <vehicle id="r7_170" type="mixed" route="r7" depart="227" departPosLat="random"/>
    <vehicle id="r2_171" type="mixed" route="r2" depart="228" departPosLat="random"/>
    <vehicle id="r7_172" type="mixed" route="r7" depart="228" departPosLat="random"/>
    <vehicle id="r0_173" type="mixed" route="r0" depart="231" departPosLat="random"/>
    <vehicle id="r4_174" type="mixed" route="r4" depart="233" departPosLat="random"/>
    <vehicle id="r11_175" type="mixed" route="r11" depart="233" departPosLat="random"/>
    <vehicle id="r9_176" type="mixed" route="r9" depart="234" departPosLat="random"/>
    <vehicle id="r9_177" type="mixed" route="r9" depart="235" departPosLat="random"/>
    <vehicle id="r5_178" type="mixed" route="r5" depart="236" departPosLat="random"/>
    <vehicle id="r6_179" type="mixed" route="r6" depart="237" departPosLat="random"/>
    <vehicle id="r6_180" type="mixed" route="r6" depart="240" departPosLat="random"/>
    <vehicle id="r11_181" type="mixed" route="r11" depart="242" departPosLat="random"/>
    <vehicle id="r9_182" type="mixed" route="r9" depart="244" departPosLat="random"/>
    <vehicle id="r11_183" type="mixed" route="r11" depart="244" departPosLat="random"/>
    <vehicle id="r9_184" type="mixed" route="r9" depart="245" departPosLat="random"/>
    <vehicle id="r11_185" type="mixed" route="r11" depart="247" departPosLat="random"/>
    <vehicle id="r2_186" type="mixed" route="r2" depart="251" departPosLat="random"/>
    <vehicle id="r11_187" type="mixed" route="r11" depart="252" departPosLat="random"/>
    <vehicle id="r3_188" type="mixed" route="r3" depart="252" departPosLat="random"/>
    <vehicle id="r3_189" type="mixed" route="r3" depart="253" departPosLat="random"/>
    <vehicle id="r6_190" type="mixed" route="r6" depart="254" departPosLat="random"/>
    <vehicle id="r2_191" type="mixed" route="r2" depart="255" departPosLat="random"/>
    <vehicle id="r3_192" type="mixed" route="r3" depart="255" departPosLat="random"/>
    <vehicle id="r4_193" type="mixed" route="r4" depart="255" departPosLat="random"/>
    <vehicle id="r1_194" type="mixed" route="r1" depart="257" departPosLat="random"/>
    <vehicle id="r11_195" type="mixed" route="r11" depart="260" departPosLat="random"/>
    <vehicle id="r0_196" type="mixed" route="r0" depart="260" departPosLat="random"/>
    <vehicle id="r9_197" type="mixed" route="r9" depart="260" departPosLat="random"/>
    <vehicle id="r2_198" type="mixed" route="r2" depart="262" departPosLat="random"/>
    <vehicle id="r11_199" type="mixed" route="r11" depart="262" departPosLat="random"/>
    <vehicle id="r4_200" type="mixed" route="r4" depart="263" departPosLat="random"/>
    <vehicle id="r7_201" type="mixed" route="r7" depart="263" departPosLat="random"/>
    <vehicle id="r7_202" type="mixed" route="r7" depart="263" departPosLat="random"/>
    <vehicle id="r0_203" type="mixed" route="r0" depart="263" departPosLat="random"/>
    <vehicle id="r8_204" type="mixed" route="r8" depart="264" departPosLat="random"/>
    <vehicle id="r6_205" type="mixed" route="r6" depart="266" departPosLat="random"/>
    <vehicle id="r7_206" type="mixed" route="r7" depart="267" departPosLat="random"/>
    <vehicle id="r6_207" type="mixed" route="r6" depart="267" departPosLat="random"/>
    <vehicle id="r6_208" type="mixed" route="r6" depart="267" departPosLat="random"/>
    <vehicle id="r10_209" type="mixed" route="r10" depart="268" departPosLat="random"/>
    <vehicle id="r2_210" type="mixed" route="r2" depart="268" departPosLat="random"/>
    <vehicle id="r3_211" type="mixed" route="r3" depart="269" departPosLat="random"/>
    <vehicle id="r10_212" type="mixed" route="r10" depart="269" departPosLat="random"/>
    <vehicle id="r8_213" type="mixed" route="r8" depart="270" departPosLat="random"/>
    <vehicle id="r9_214" type="mixed" route="r9" depart="271" departPosLat="random"/>
    <vehicle id="r7_215" type="mixed" route="r7" depart="273" departPosLat="random"/>
    <vehicle id="r2_216" type="mixed" route="r2" depart="273" departPosLat="random"/>
    <vehicle id="r9_217" type="mixed" route="r9" depart="273" departPosLat="random"/>
    <vehicle id="r9_218" type="mixed" route="r9" depart="274" departPosLat="random"/>
    <vehicle id="r4_219" type="mixed" route="r4" depart="278" departPosLat="random"/>
    <vehicle id="r2_220" type="mixed" route="r2" depart="280" departPosLat="random"/>
    <vehicle id="r5_221" type="mixed" route="r5" depart="281" departPosLat="random"/>
    <vehicle id="r3_222" type="mixed" route="r3" depart="281" departPosLat="random"/>
    <vehicle id="r2_223" type="mixed" route="r2" depart="283" departPosLat="random"/>
    <vehicle id="r8_224" type="mixed" route="r8" depart="285" departPosLat="random"/>
    <vehicle id="r3_225" type="mixed" route="r3" depart="285" departPosLat="random"/>
    <vehicle id="r0_226" type="mixed" route="r0" depart="286" departPosLat="random"/>
    <vehicle id="r3_227" type="mixed" route="r3" depart="286" departPosLat="random"/>
    <vehicle id="r10_228" type="mixed" route="r10" depart="287" departPosLat="random"/>
    <vehicle id="r3_229" type="mixed" route="r3" depart="287" departPosLat="random"/>
    <vehicle id="r7_230" type="mixed" route="r7" depart="287" departPosLat="random"/>
    <vehicle id="r11_231" type="mixed" route="r11" depart="287" departPosLat="random"/>
    <vehicle id="r3_232" type="mixed" route="r3" depart="287" departPosLat="random"/>
    <vehicle id="r3_233" type="mixed" route="r3" depart="288" departPosLat="random"/>
    <vehicle id="r4_234" type="mixed" route="r4" depart="288" departPosLat="random"/>
    <vehicle id="r11_235" type="mixed" route="r11" depart="289" departPosLat="random"/>
    <vehicle id="r11_236" type="mixed" route="r11" depart="290" departPosLat="random"/>
    <vehicle id="r9_237" type="mixed" route="r9" depart="290" departPosLat="random"/>
    <vehicle id="r1_238" type="mixed" route="r1" depart="290" departPosLat="random"/>
    <vehicle id="r6_239" type="mixed" route="r6" depart="291" departPosLat="random"/>
    <vehicle id="r3_240" type="mixed" route="r3" depart="292" departPosLat="random"/>
    <vehicle id="r2_241" type="mixed" route="r2" depart="292" departPosLat="random"/>
    <vehicle id="r3_242" type="mixed" route="r3" depart="293" departPosLat="random"/>
    <vehicle id="r6_243" type="mixed" route="r6" depart="294" departPosLat="random"/>
    <vehicle id="r8_244" type="mixed" route="r8" depart="295" departPosLat="random"/>
    <vehicle id="r6_245" type="mixed" route="r6" depart="295" departPosLat="random"/>
    <vehicle id="r11_246" type="mixed" route="r11" depart="295" departPosLat="random"/>
    <vehicle id="r11_247" type="mixed" route="r11" depart="299" departPosLat="random"/>
    <vehicle id="r8_248" type="mixed" route="r8" depart="299" departPosLat="random"/>
    <vehicle id="r7_249" type="mixed" route="r7" depart="301" departPosLat="random"/>
    <vehicle id="r9_250" type="mixed" route="r9" depart="301" departPosLat="random"/>
    <vehicle id="r7_251" type="mixed" route="r7" depart="304" departPosLat="random"/>
    <vehicle id="r3_252" type="mixed" route="r3" depart="305" departPosLat="random"/>
    <vehicle id="r6_253" type="mixed" route="r6" depart="306" departPosLat="random"/>
    <vehicle id="r3_254" type="mixed" route="r3" depart="306" departPosLat="random"/>
    <vehicle id="r11_255" type="mixed" route="r11" depart="307" departPosLat="random"/>
    <vehicle id="r11_256" type="mixed" route="r11" depart="309" departPosLat="random"/>
    <vehicle id="r0_257" type="mixed" route="r0" depart="309" departPosLat="random"/>
    <vehicle id="r2_258" type="mixed" route="r2" depart="310" departPosLat="random"/>
    <vehicle id="r2_259" type="mixed" route="r2" depart="310" departPosLat="random"/>
    <vehicle id="r1_260" type="mixed" route="r1" depart="311" departPosLat="random"/>
    <vehicle id="r3_261" type="mixed" route="r3" depart="311" departPosLat="random"/>
    <vehicle id="r0_262" type="mixed" route="r0" depart="312" departPosLat="random"/>
    <vehicle id="r6_263" type="mixed" route="r6" depart="312" departPosLat="random"/>
    <vehicle id="r7_264" type="mixed" route="r7" depart="312" departPosLat="random"/>
    <vehicle id="r11_265" type="mixed" route="r11" depart="312" departPosLat="random"/>
    <vehicle id="r3_266" type="mixed" route="r3" depart="313" departPosLat="random"/>
    <vehicle id="r4_267" type="mixed" route="r4" depart="314" departPosLat="random"/>
    <vehicle id="r8_268" type="mixed" route="r8" depart="314" departPosLat="random"/>
    <vehicle id="r5_269" type="mixed" route="r5" depart="314" departPosLat="random"/>
    <vehicle id="r4_270" type="mixed" route="r4" depart="315" departPosLat="random"/>
    <vehicle id="r6_271" type="mixed" route="r6" depart="316" departPosLat="random"/>
    <vehicle id="r4_272" type="mixed" route="r4" depart="316" departPosLat="random"/>
    <vehicle id="r9_273" type="mixed" route="r9" depart="317" departPosLat="random"/>
    <vehicle id="r9_274" type="mixed" route="r9" depart="319" departPosLat="random"/>
    <vehicle id="r7_275" type="mixed" route="r7" depart="320" departPosLat="random"/>
    <vehicle id="r5_276" type="mixed" route="r5" depart="321" departPosLat="random"/>
    <vehicle id="r5_277" type="mixed" route="r5" depart="321" departPosLat="random"/>
    <vehicle id="r3_278" type="mixed" route="r3" depart="322" departPosLat="random"/>
    <vehicle id="r7_279" type="mixed" route="r7" depart="323" departPosLat="random"/>
    <vehicle id="r5_280" type="mixed" route="r5" depart="323" departPosLat="random"/>
    <vehicle id="r3_281" type="mixed" route="r3" depart="324" departPosLat="random"/>
    <vehicle id="r5_282" type="mixed" route="r5" depart="326" departPosLat="random"/>
    <vehicle id="r4_283" type="mixed" route="r4" depart="326" departPosLat="random"/>
    <vehicle id="r10_284" type="mixed" route="r10" depart="327" departPosLat="random"/>
    <vehicle id="r2_285" type="mixed" route="r2" depart="328" departPosLat="random"/>
    <vehicle id="r2_286" type="mixed" route="r2" depart="328" departPosLat="random"/>
    <vehicle id="r11_287" type="mixed" route="r11" depart="329" departPosLat="random"/>
    <vehicle id="r6_288" type="mixed" route="r6" depart="329" departPosLat="random"/>
    <vehicle id="r8_289" type="mixed" route="r8" depart="330" departPosLat="random"/>
    <vehicle id="r7_290" type="mixed" route="r7" depart="332" departPosLat="random"/>
    <vehicle id="r1_291" type="mixed" route="r1" depart="332" departPosLat="random"/>
    <vehicle id="r5_292" type="mixed" route="r5" depart="332" departPosLat="random"/>
    <vehicle id="r11_293" type="mixed" route="r11" depart="333" departPosLat="random"/>
    <vehicle id="r10_294" type="mixed" route="r10" depart="333" departPosLat="random"/>
    <vehicle id="r0_295" type="mixed" route="r0" depart="333" departPosLat="random"/>
    <vehicle id="r6_296" type="mixed" route="r6" depart="334" departPosLat="random"/>
    <vehicle id="r2_297" type="mixed" route="r2" depart="334" departPosLat="random"/>
    <vehicle id="r11_298" type="mixed" route="r11" depart="336" departPosLat="random"/>
    <vehicle id="r10_299" type="mixed" route="r10" depart="336" departPosLat="random"/>
    <vehicle id="r3_300" type="mixed" route="r3" depart="337" departPosLat="random"/>
    <vehicle id="r8_301" type="mixed" route="r8" depart="338" departPosLat="random"/>
    <vehicle id="r9_302" type="mixed" route="r9" depart="339" departPosLat="random"/>
    <vehicle id="r1_303" type="mixed" route="r1" depart="339" departPosLat="random"/>
    <vehicle id="r8_304" type="mixed" route="r8" depart="339" departPosLat="random"/>
    <vehicle id="r5_305" type="mixed" route="r5" depart="340" departPosLat="random"/>
    <vehicle id="r11_306" type="mixed" route="r11" depart="340" departPosLat="random"/>
    <vehicle id="r2_307" type="mixed" route="r2" depart="340" departPosLat="random"/>
    <vehicle id="r0_308" type="mixed" route="r0" depart="341" departPosLat="random"/>
    <vehicle id="r4_309" type="mixed" route="r4" depart="342" departPosLat="random"/>
    <vehicle id="r6_310" type="mixed" route="r6" depart="343" departPosLat="random"/>
    <vehicle id="r6_311" type="mixed" route="r6" depart="343" departPosLat="random"/>
    <vehicle id="r7_312" type="mixed" route="r7" depart="343" departPosLat="random"/>
    <vehicle id="r8_313" type="mixed" route="r8" depart="343" departPosLat="random"/>
    <vehicle id="r5_314" type="mixed" route="r5" depart="344" departPosLat="random"/>
    <vehicle id="r7_315" type="mixed" route="r7" depart="344" departPosLat="random"/>
    <vehicle id="r1_316" type="mixed" route="r1" depart="344" departPosLat="random"/>
    <vehicle id="r7_317" type="mixed" route="r7" depart="344" departPosLat="random"/>
    <vehicle id="r9_318" type="mixed" route="r9" depart="346" departPosLat="random"/>
    <vehicle id="r8_319" type="mixed" route="r8" depart="348" departPosLat="random"/>
    <vehicle id="r2_320" type="mixed" route="r2" depart="349" departPosLat="random"/>
    <vehicle id="r9_321" type="mixed" route="r9" depart="349" departPosLat="random"/>
    <vehicle id="r1_322" type="mixed" route="r1" depart="350" departPosLat="random"/>
    <vehicle id="r5_323" type="mixed" route="r5" depart="350" departPosLat="random"/>
    <vehicle id="r7_324" type="mixed" route="r7" depart="351" departPosLat="random"/>
    <vehicle id="r3_325" type="mixed" route="r3" depart="351" departPosLat="random"/>
    <vehicle id="r3_326" type="mixed" route="r3" depart="353" departPosLat="random"/>
    <vehicle id="r3_327" type="mixed" route="r3" depart="353" departPosLat="random"/>
    <vehicle id="r11_328" type="mixed" route="r11" depart="353" departPosLat="random"/>
    <vehicle id="r11_329" type="mixed" route="r11" depart="355" departPosLat="random"/>
    <vehicle id="r8_330" type="mixed" route="r8" depart="356" departPosLat="random"/>
    <vehicle id="r4_331" type="mixed" route="r4" depart="356" departPosLat="random"/>
    <vehicle id="r9_332" type="mixed" route="r9" depart="356" departPosLat="random"/>
    <vehicle id="r8_333" type="mixed" route="r8" depart="358" departPosLat="random"/>
    <vehicle id="r6_334" type="mixed" route="r6" depart="359" departPosLat="random"/>
    <vehicle id="r1_335" type="mixed" route="r1" depart="363" departPosLat="random"/>
    <vehicle id="r4_336" type="mixed" route="r4" depart="363" departPosLat="random"/>
    <vehicle id="r9_337" type="mixed" route="r9" depart="363" departPosLat="random"/>
    <vehicle id="r6_338" type="mixed" route="r6" depart="364" departPosLat="random"/>
    <vehicle id="r11_339" type="mixed" route="r11" depart="365" departPosLat="random"/>