<routes>
    <vTypeDistribution id="mixed">
        <vType id="car" vClass="passenger" speedDev="0.2" latAlignment="compact" probability="0.6"/>
        <vType id="moped" vClass="moped" speedDev="0.4" latAlignment="compact" probability="0.4"/>
    </vTypeDistribution>
    <route id="r0" edges="51o 1i 2o 52i"/>
    <route id="r1" edges="51o 1i 4o 54i"/>
    <route id="r2" edges="51o 1i 3o 53i"/>
    <route id="r3" edges="54o 4i 3o 53i"/>
    <route id="r4" edges="54o 4i 1o 51i"/>
    <route id="r5" edges="54o 4i 2o 52i"/>
    <route id="r6" edges="52o 2i 1o 51i"/>
    <route id="r7" edges="52o 2i 4o 54i"/>
    <route id="r8" edges="52o 2i 3o 53i"/>
    <route id="r9" edges="53o 3i 4o 54i"/>
    <route id="r10" edges="53o 3i 1o 51i"/>
    <route id="r11" edges="53o 3i 2o 52i"/>
    <vehicle id="r5_0" type="mixed" route="r5" depart="34" departPosLat="random"/>
    <vehicle id="r2_1" type="mixed" route="r2" depart="36" departPosLat="random"/>
    <vehicle id="r11_2" type="mixed" route="r11" depart="37" departPosLat="random"/>
    <vehicle id="r3_3" type="mixed" route="r3" depart="40" departPosLat="random"/>
    <vehicle id="r11_4" type="mixed" route="r11" depart="42" departPosLat="random"/>
    <vehicle id="r6_5" type="mixed" route="r6" depart="48" departPosLat="random"/>
    <vehicle id="r1_6" type="mixed" route="r1" depart="52" departPosLat="random"/>
    <vehicle id="r3_7" type="mixed" route="r3" depart="53" departPosLat="random"/>
    <vehicle id="r9_8" type="mixed" route="r9" depart="53" departPosLat="random"/>
    <vehicle id="r5_9" type="mixed" route="r5" depart="55" departPosLat="random"/>
    <vehicle id="r2_10" type="mixed" route="r2" depart="57" departPosLat="random"/>
    <vehicle id="r9_11" type="mixed" route="r9" depart="57" departPosLat="random"/>
    <vehicle id="r8_12" type="mixed" route="r8" depart="60" departPosLat="random"/>
    <vehicle id="r9_13" type="mixed" route="r9" depart="61" departPosLat="random"/>
    <vehicle id="r11_14" type="mixed" route="r11" depart="62" departPosLat="random"/>
    <vehicle id="r9_15" type="mixed" route="r9" depart="65" departPosLat="random"/>
    <vehicle id="r8_16" type="mixed" route="r8" depart="67" departPosLat="random"/>
    <vehicle id="r11_17" type="mixed" route="r11" depart="68" departPosLat="random"/>
    <vehicle id="r3_18" type="mixed" route="r3" depart="68" departPosLat="random"/>
    <vehicle id="r9_19" type="mixed" route="r9" depart="68" departPosLat="random"/>
    <vehicle id="r3_20" type="mixed" route="r3" depart="71" departPosLat="random"/>
    <vehicle id="r8_21" type="mixed" route="r8" depart="71" departPosLat="random"/>
    <vehicle id="r9_22" type="mixed" route="r9" depart="72" departPosLat="random"/>
    <vehicle id="r8_23" type="mixed" route="r8" depart="73" departPosLat="random"/>
    <vehicle id="r3_24" type="mixed" route="r3" depart="75" departPosLat="random"/>
    <vehicle id="r2_25" type="mixed" route="r2" depart="77" departPosLat="random"/>
    <vehicle id="r11_26" type="mixed" route="r11" depart="78" departPosLat="random"/>
    <vehicle id="r9_27" type="mixed" route="r9" depart="79" departPosLat="random"/>
    <vehicle id="r3_28" type="mixed" route="r3" depart="80" departPosLat="random"/>
    <vehicle id="r11_29" type="mixed" route="r11" depart="80" departPosLat="random"/>
    <vehicle id="r8_30" type="mixed" route="r8" depart="80" departPosLat="random"/>
    <vehicle id="r10_31" type="mixed" route="r10" depart="82" departPosLat="random"/>
    <vehicle id="r8_32" type="mixed" route="r8" depart="82" departPosLat="random"/>
    <vehicle id="r6_33" type="mixed" route="r6" depart="82" departPosLat="random"/>
    <vehicle id="r8_34" type="mixed" route="r8" depart="83" departPosLat="random"/>
    <vehicle id="r9_35" type="mixed" route="r9" depart="85" departPosLat="random"/>
    <vehicle id="r2_36" type="mixed" route="r2" depart="86" departPosLat="random"/>
    <vehicle id="r4_37" type="mixed" route="r4" depart="88" departPosLat="random"/>
    <vehicle id="r8_38" type="mixed" route="r8" depart="89" departPosLat="random"/>
    <vehicle id="r3_39" type="mixed" route="r3" depart="89" departPosLat="random"/>
    <vehicle id="r6_40" type="mixed" route="r6" depart="92" departPosLat="random"/>
    <vehicle id="r7_41" type="mixed" route="r7" depart="93" departPosLat="random"/>
    <vehicle id="r3_42" type="mixed" route="r3" depart="94" departPosLat="random"/>
    <vehicle id="r2_43" type="mixed" route="r2" depart="96" departPosLat="random"/>
    <vehicle id="r11_44" type="mixed" route="r11" depart="96" departPosLat="random"/>
    <vehicle id="r7_45" type="mixed" route="r7" depart="97" departPosLat="random"/>
    <vehicle id="r11_46" type="mixed" route="r11" depart="97" departPosLat="random"/>
    <vehicle id="r8_47" type="mixed" route="r8" depart="97" departPosLat="random"/>
    <vehicle id="r7_48" type="mixed" route="r7" depart="98" departPosLat="random"/>
    <vehicle id="r10_49" type="mixed" route="r10" depart="100" departPosLat="random"/>
    <vehicle id="r6_50" type="mixed" route="r6" depart="100" departPosLat="random"/>
    <vehicle id="r11_51" type="mixed" route="r11" depart="102" departPosLat="random"/>
    <vehicle id="r8_52" type="mixed" route="r8" depart="102" departPosLat="random"/>
    <vehicle id="r4_53" type="mixed" route="r4" depart="102" departPosLat="random"/>
    <vehicle id="r6_54" type="mixed" route="r6" depart="104" departPosLat="random"/>
    <vehicle id="r11_55" type="mixed" route="r11" depart="105" departPosLat="random"/>
    <vehicle id="r2_56" type="mixed" route="r2" depart="108" departPosLat="random"/>
    <vehicle id="r3_57" type="mixed" route="r3" depart="108" departPosLat="random"/>
    <vehicle id="r9_58" type="mixed" route="r9" depart="108" departPosLat="random"/>
    <vehicle id="r0_59" type="mixed" route="r0" depart="108" departPosLat="random"/>
    <vehicle id="r8_60" type="mixed" route="r8" depart="108" departPosLat="random"/>
    <vehicle id="r2_61" type="mixed" route="r2" depart="109" departPosLat="random"/>
    <vehicle id="r8_62" type="mixed" route="r8" depart="109" departPosLat="random"/>
    <vehicle id="r2_63" type="mixed" route="r2" depart="110" departPosLat="random"/>
    <vehicle id="r6_64" type="mixed" route="r6" depart="115" departPosLat="random"/>
    <vehicle id="r9_65" type="mixed" route="r9" depart="115" departPosLat="random"/>
    <vehicle id="r11_66" type="mixed" route="r11" depart="115" departPosLat="random"/>
    <vehicle id="r3_67" type="mixed" route="r3" depart="115" departPosLat="random"/>
    <vehicle id="r8_68" type="mixed" route="r8" depart="119" departPosLat="random"/>
    <vehicle id="r5_69" type="mixed" route="r5" depart="120" departPosLat="random"/>
    <vehicle id="r2_70" type="mixed" route="r2" depart="120" departPosLat="random"/>
    <vehicle id="r8_71" type="mixed" route="r8" depart="122" departPosLat="random"/>
    <vehicle id="r9_72" type="mixed" route="r9" depart="122" departPosLat="random"/>
    <vehicle id="r8_73" type="mixed" route="r8" depart="122" departPosLat="random"/>
    <vehicle id="r11_74" type="mixed" route="r11" depart="126" departPosLat="random"/>
    <vehicle id="r4_75" type="mixed" route="r4" depart="128" departPosLat="random"/>
    <vehicle id="r6_76" type="mixed" route="r6" depart="128" departPosLat="random"/>
    <vehicle id="r4_77" type="mixed" route="r4" depart="130" departPosLat="random"/>
    <vehicle id="r0_78" type="mixed" route="r0" depart="130" departPosLat="random"/>
    <vehicle id="r8_79" type="mixed" route="r8" depart="130" departPosLat="random"/>
    <vehicle id="r0_80" type="mixed" route="r0" depart="131" departPosLat="random"/>
    <vehicle id="r2_81" type="mixed" route="r2" depart="132" departPosLat="random"/>
    <vehicle id="r6_82" type="mixed" route="r6" depart="132" departPosLat="random"/>
    <vehicle id="r8_83" type="mixed" route="r8" depart="133" departPosLat="random"/>
    <vehicle id="r3_84" type="mixed" route="r3" depart="134" departPosLat="random"/>
    <vehicle id="r5_85" type="mixed" route="r5" depart="135" departPosLat="random"/>
    <vehicle id="r10_86" type="mixed" route="r10" depart="136" departPosLat="random"/>
    <vehicle id="r1_87" type="mixed" route="r1" depart="137" departPosLat="random"/>
    <vehicle id="r3_88" type="mixed" route="r3" depart="138" departPosLat="random"/>
    <vehicle id="r5_89" type="mixed" route="r5" depart="139" departPosLat="random"/>
    <vehicle id="r8_90" type="mixed" route="r8" depart="139" departPosLat="random"/>
    <vehicle id="r3_91" type="mixed" route="r3" depart="140" departPosLat="random"/>
    <vehicle id="r6_92" type="mixed" route="r6" depart="140" departPosLat="random"/>
    <vehicle id="r8_93" type="mixed" route="r8" depart="141" departPosLat="random"/>
    <vehicle id="r0_94" type="mixed" route="r0" depart="141" departPosLat="random"/>
    <vehicle id="r8_95" type="mixed" route="r8" depart="142" departPosLat="random"/>
    <vehicle id="r11_96" type="mixed" route="r11" depart="142" departPosLat="random"/>
    <vehicle id="r1_97" type="mixed" route="r1" depart="143" departPosLat="random"/>
    <vehicle id="r9_98" type="mixed" route="r9" depart="145" departPosLat="random"/>
    <vehicle id="r2_99" type="mixed" route="r2" depart="145" departPosLat="random"/>
    <vehicle id="r2_100" type="mixed" route="r2" depart="146" departPosLat="random"/>
    <vehicle id="r11_101" type="mixed" route="r11" depart="146" departPosLat="random"/>
    <vehicle id="r8_102" type="mixed" route="r8" depart="147" departPosLat="random"/>
    <vehicle id="r9_103" type="mixed" route="r9" depart="148" departPosLat="random"/>
    <vehicle id="r11_104" type="mixed" route="r11" depart="148" departPosLat="random"/>
    <vehicle id="r9_105" type="mixed" route="r9" depart="148" departPosLat="random"/>
    <vehicle id="r5_106" type="mixed" route="r5" depart="149" departPosLat="random"/>
    <vehicle id="r9_107" type="mixed" route="r9" depart="149" departPosLat="random"/>
    <vehicle id="r4_108" type="mixed" route="r4" depart="149" departPosLat="random"/>
    <vehicle id="r9_109" type="mixed" route="r9" depart="149" departPosLat="random"/>
    <vehicle id="r9_110" type="mixed" route="r9" depart="151" departPosLat="random"/>
    <vehicle id="r4_111" type="mixed" route="r4" depart="151" departPosLat="random"/>
    <vehicle id="r9_112" type="mixed" route="r9" depart="152" departPosLat="random"/>
    <vehicle id="r9_113" type="mixed" route="r9" depart="152" departPosLat="random"/>
    <vehicle id="r11_114" type="mixed" route="r11" depart="153" departPosLat="random"/>
    <vehicle id="r9_115" type="mixed" route="r9" depart="154" departPosLat="random"/>
    <vehicle id="r1_116" type="mixed" route="r1" depart="155" departPosLat="random"/>
    <vehicle id="r10_117" type="mixed" route="r10" depart="155" departPosLat="random"/>
    <vehicle id="r6_118" type="mixed" route="r6" depart="155" departPosLat="random"/>
    <vehicle id="r3_119" type="mixed" route="r3" depart="155" departPosLat="random"/>
    <vehicle id="r2_120" type="mixed" route="r2" depart="156" departPosLat="random"/>
    <vehicle id="r0_121" type="mixed" route="r0" depart="157" departPosLat="random"/>
    <vehicle id="r6_122" type="mixed" route="r6" depart="157" departPosLat="random"/>
    <vehicle id="r5_123" type="mixed" route="r5" depart="157" departPosLat="random"/>
    <vehicle id="r9_124" type="mixed" route="r9" depart="160" departPosLat="random"/>
    <vehicle id="r11_125" type="mixed" route="r11" depart="160" departPosLat="random"/>
    <vehicle id="r9_126" type="mixed" route="r9" depart="160" departPosLat="random"/>
    <vehicle id="r6_127" type="mixed" route="r6" depart="162" departPosLat="random"/>
    <vehicle id="r11_128" type="mixed" route="r11" depart="163" departPosLat="random"/>
    <vehicle id="r11_129" type="mixed" route="r11" depart="163" departPosLat="random"/>
    <vehicle id="r11_130" type="mixed" route="r11" depart="164" departPosLat="random"/>
    <vehicle id="r7_131" type="mixed" route="r7" depart="164" departPosLat="random"/>
    <vehicle id="r1_132" type="mixed" route="r1" depart="164" departPosLat="random"/>
    <vehicle id="r4_133" type="mixed" route="r4" depart="165" departPosLat="random"/>
    <vehicle id="r10_134" type="mixed" route="r10" depart="166" departPosLat="random"/>
    <vehicle id="r11_135" type="mixed" route="r11" depart="168" departPosLat="random"/>
    <vehicle id="r1_136" type="mixed" route="r1" depart="168" departPosLat="random"/>
    <vehicle id="r6_137" type="mixed" route="r6" depart="168" departPosLat="random"/>
    <vehicle id="r3_138" type="mixed" route="r3" depart="169" departPosLat="random"/>
    <vehicle id="r9_139" type="mixed" route="r9" depart="171" departPosLat="random"/>
    <vehicle id="r11_140" type="mixed" route="r11" depart="171" departPosLat="random"/>
    <vehicle id="r3_141" type="mixed" route="r3" depart="171" departPosLat="random"/>
    <vehicle id="r11_142" type="mixed" route="r11" depart="172" departPosLat="random"/>
    <vehicle id="r9_143" type="mixed" route="r9" depart="172" departPosLat="random"/>
    <vehicle id="r8_144" type="mixed" route="r8" depart="173" departPosLat="random"/>
    <vehicle id="r3_145" type="mixed" route="r3" depart="174" departPosLat="random"/>
    <vehicle id="r2_146" type="mixed" route="r2" depart="174" departPosLat="random"/>
    <vehicle id="r11_147" type="mixed" route="r11" depart="175" departPosLat="random"/>
    <vehicle id="r11_148" type="mixed" route="r11" depart="175" departPosLat="random"/>
    <vehicle id="r3_149" type="mixed" route="r3" depart="176" departPosLat="random"/>
    <vehicle id="r6_150" type="mixed" route="r6" depart="176" departPosLat="random"/>
    <vehicle id="r8_151" type="mixed" route="r8" depart="176" departPosLat="random"/>
    <vehicle id="r8_152" type="mixed" route="r8" depart="177" departPosLat="random"/>
    <vehicle id="r2_153" type="mixed" route="r2" depart="177" departPosLat="random"/>
    <vehicle id="r3_154" type="mixed" route="r3" depart="177" departPosLat="random"/>
    <vehicle id="r2_155" type="mixed" route="r2" depart="178" departPosLat="random"/>
    <vehicle id="r11_156" type="mixed" route="r11" depart="178" departPosLat="random"/>
    <vehicle id="r4_157" type="mixed" route="r4" depart="179" departPosLat="random"/>
    <vehicle id="r3_158" type="mixed" route="r3" depart="179" departPosLat="random"/>
    <vehicle id="r6_159" type="mixed" route="r6" depart="179" departPosLat="random"/>
    <vehicle id="r4_160" type="mixed" route="r4" depart="179" departPosLat="random"/>
    <vehicle id="r6_161" type="mixed" route="r6" depart="180" departPosLat="random"/>
    <vehicle id="r9_162" type="mixed" route="r9" depart="182" departPosLat="random"/>
    <vehicle id="r6_163" type="mixed" route="r6" depart="182" departPosLat="random"/>
    <vehicle id="r3_164" type="mixed" route="r3" depart="184" departPosLat="random"/>
    <vehicle id="r9_165" type="mixed" route="r9" depart="185" departPosLat="random"/>
    <vehicle id="r3_166" type="mixed" route="r3" depart="185" departPosLat="random"/>
    <vehicle id="r11_167" type="mixed" route="r11" depart="185" departPosLat="random"/>
    <vehicle id="r4_168" type="mixed" route="r4" depart="186" departPosLat="random"/>
    <vehicle id="r4_169" type="mixed" route="r4" depart="186" departPosLat="random"/>
    <vehicle id="r11_170" type="mixed" route="r11" depart="186" departPosLat="random"/>
    <vehicle id="r6_171" type="mixed" route="r6" depart="186" departPosLat="random"/>
    <vehicle id="r6_172" type="mixed" route="r6" depart="187" departPosLat="random"/>
    <vehicle id="r4_173" type="mixed" route="r4" depart="190" departPosLat="random"/>
    <vehicle id="r1_174" type="mixed" route="r1" depart="190" departPosLat="random"/>
    <vehicle id="r8_175" type="mixed" route="r8" depart="191" departPosLat="random"/>
    <vehicle id="r8_176" type="mixed" route="r8" depart="192" departPosLat="random"/>
    <vehicle id="r2_177" type="mixed" route="r2" depart="192" departPosLat="random"/>
    <vehicle id="r8_178" type="mixed" route="r8" depart="192" departPosLat="random"/>
    <vehicle id="r7_179" type="mixed" route="r7" depart="193" departPosLat="random"/>
    <vehicle id="r6_180" type="mixed" route="r6" depart="194" departPosLat="random"/>
    <vehicle id="r8_181" type="mixed" route="r8" depart="194" departPosLat="random"/>
    <vehicle id="r8_182" type="mixed" route="r8" depart="194" departPosLat="random"/>
    <vehicle id="r9_183" type="mixed" route="r9" depart="194" departPosLat="random"/>
    <vehicle id="r5_184" type="mixed" route="r5" depart="194" departPosLat="random"/>
    <vehicle id="r6_185" type="mixed" route="r6" depart="194" departPosLat="random"/>
    <vehicle id="r7_186" type="mixed" route="r7" depart="195" departPosLat="random"/>
    <vehicle id="r8_187" type="mixed" route="r8" depart="195" departPosLat="random"/>
    <vehicle id="r2_188" type="mixed" route="r2" depart="196" departPosLat="random"/>
    <vehicle id="r8_189" type="mixed" route="r8" depart="198" departPosLat="random"/>
    <vehicle id="r8_190" type="mixed" route="r8" depart="199" departPosLat="random"/>
    <vehicle id="r8_191" type="mixed" route="r8" depart="201" departPosLat="random"/>
    <vehicle id="r3_192" type="mixed" route="r3" depart="202" departPosLat="random"/>
    <vehicle id="r8_193" type="mixed" route="r8" depart="202" departPosLat="random"/>
    <vehicle id="r11_194" type="mixed" route="r11" depart="203" departPosLat="random"/>
    <vehicle id="r3_195" type="mixed" route="r3" depart="203" departPosLat="random"/>
    <vehicle id="r2_196" type="mixed" route="r2" depart="203" departPosLat="random"/>
    <vehicle id="r6_197" type="mixed" route="r6" depart="204" departPosLat="random"/>
    <vehicle id="r11_198" type="mixed" route="r11" depart="204" departPosLat="random"/>
    <vehicle id="r2_199" type="mixed" route="r2" depart="204" departPosLat="random"/>
    <vehicle id="r2_200" type="mixed" route="r2" depart="205" departPosLat="random"/>
    <vehicle id="r6_201" type="mixed" route="r6" depart="205" departPosLat="random"/>
    <vehicle id="r8_202" type="mixed" route="r8" depart="206" departPosLat="random"/>
    <vehicle id="r11_203" type="mixed" route="r11" depart="206" departPosLat="random"/>
    <vehicle id="r8_204" type="mixed" route="r8" depart="206" departPosLat="random"/>
    <vehicle id="r3_205" type="mixed" route="r3" depart="206" departPosLat="random"/>
    <vehicle id="r9_206" type="mixed" route="r9" depart="208" departPosLat="random"/>
    <vehicle id="r0_207" type="mixed" route="r0" depart="209" departPosLat="random"/>
    <vehicle id="r4_208" type="mixed" route="r4" depart="209" departPosLat="random"/>
    <vehicle id="r9_209" type="mixed" route="r9" depart="209" departPosLat="random"/>
    <vehicle id="r9_210" type="mixed" route="r9" depart="210" departPosLat="random"/>
    <vehicle id="r9_211" type="mixed" route="r9" depart="210" departPosLat="random"/>
    <vehicle id="r3_212" type="mixed" route="r3" depart="211" departPosLat="random"/>
    <vehicle id="r2_213" type="mixed" route="r2" depart="211" departPosLat="random"/>
    <vehicle id="r1_214" type="mixed" route="r1" depart="211" departPosLat="random"/>
    <vehicle id="r8_215" type="mixed" route="r8" depart="212" departPosLat="random"/>
    <vehicle id="r6_216" type="mixed" route="r6" depart="213" departPosLat="random"/>
    <vehicle id="r11_217" type="mixed" route="r11" depart="214" departPosLat="random"/>
    <vehicle id="r9_218" type="mixed" route="r9" depart="215" departPosLat="random"/>
    <vehicle id="r1_219" type="mixed" route="r1" depart="215" departPosLat="random"/>
    <vehicle id="r9_220" type="mixed" route="r9" depart="216" departPosLat="random"/>
    <vehicle id="r9_221" type="mixed" route="r9" depart="216" departPosLat="random"/>
    <vehicle id="r2_222" type="mixed" route="r2" depart="217" departPosLat="random"/>
    <vehicle id="r4_223" type="mixed" route="r4" depart="217" departPosLat="random"/>
    <vehicle id="r8_224" type="mixed" route="r8" depart="218" departPosLat="random"/>
    <vehicle id="r11_225" type="mixed" route="r11" depart="218" departPosLat="random"/>
    <vehicle id="r9_226" type="mixed" route="r9" depart="218" departPosLat="random"/>
    <vehicle id="r2_227" type="mixed" route="r2" depart="219" departPosLat="random"/>
    <vehicle id="r11_228" type="mixed" route="r11" depart="219" departPosLat="random"/>
    <vehicle id="r11_229" type="mixed" route="r11" depart="220" departPosLat="random"/>
    <vehicle id="r2_230" type="mixed" route="r2" depart="220" departPosLat="random"/>
    <vehicle id="r11_231" type="mixed" route="r11" depart="220" departPosLat="random"/>
    <vehicle id="r5_232" type="mixed" route="r5" depart="221" departPosLat="random"/>
    <vehicle id="r2_233" type="mixed" route="r2" depart="221" departPosLat="random"/>
    <vehicle id="r9_234" type="mixed" route="r9" depart="221" departPosLat="random"/>
    <vehicle id="r8_235" type="mixed" route="r8" depart="221" departPosLat="random"/>
    <vehicle id="r9_236" type="mixed" route="r9" depart="222" departPosLat="random"/>
    <vehicle id="r11_237" type="mixed" route="r11" depart="223" departPosLat="random"/>
    <vehicle id="r11_238" type="mixed" route="r11" depart="224" departPosLat="random"/>
    <vehicle id="r3_239" type="mixed" route="r3" depart="224" departPosLat="random"/>
    <vehicle id="r6_240" type="mixed" route="r6" depart="224" departPosLat="random"/>
    <vehicle id="r7_241" type="mixed" route="r7" depart="224" departPosLat="random"/>
    <vehicle id="r11_242" type="mixed" route="r11" depart="224" departPosLat="random"/>
    <vehicle id="r8_243" type="mixed" route="r8" depart="224" departPosLat="random"/>
    <vehicle id="r9_244" type="mixed" route="r9" depart="225" departPosLat="random"/>
    <vehicle id="r11_245" type="mixed" route="r11" depart="226" departPosLat="random"/>
    <vehicle id="r9_246" type="mixed" route="r9" depart="226" departPosLat="random"/>
    <vehicle id="r8_247" type="mixed" route="r8" depart="226" departPosLat="random"/>
    <vehicle id="r2_248" type="mixed" route="r2" depart="227" departPosLat="random"/>
    <vehicle id="r9_249" type="mixed" route="r9" depart="227" departPosLat="random"/>
    <vehicle id="r11_250" type="mixed" route="r11" depart="227" departPosLat="random"/>
    <vehicle id="r8_251" type="mixed" route="r8" depart="227" departPosLat="random"/>
    <vehicle id="r9_252" type="mixed" route="r9" depart="228" departPosLat="random"/>
    <vehicle id="r3_253" type="mixed" route="r3" depart="228" departPosLat="random"/>
    <vehicle id="r8_254" type="mixed" route="r8" depart="230" departPosLat="random"/>
    <vehicle id="r8_255" type="mixed" route="r8" depart="231" departPosLat="random"/>
    <vehicle id="r5_256" type="mixed" route="r5" depart="233" departPosLat="random"/>
    <vehicle id="r3_257" type="mixed" route="r3" depart="233" departPosLat="random"/>
    <vehicle id="r11_258" type="mixed" route="r11" depart="234" departPosLat="random"/>
    <vehicle id="r11_259" type="mixed" route="r11" depart="235" departPosLat="random"/>
    <vehicle id="r2_260" type="mixed" route="r2" depart="236" departPosLat="random"/>
    <vehicle id="r3_261" type="mixed" route="r3" depart="237" departPosLat="random"/>
    <vehicle id="r3_262" type="mixed" route="r3" depart="239" departPosLat="random"/>
    <vehicle id="r10_263" type="mixed" route="r10" depart="240" departPosLat="random"/>
    <vehicle id="r6_264" type="mixed" route="r6" depart="240" departPosLat="random"/>
    <vehicle id="r6_265" type="mixed" route="r6" depart="240" departPosLat="random"/>
    <vehicle id="r9_266" type="mixed" route="r9" depart="241" departPosLat="random"/>
    <vehicle id="r6_267" type="mixed" route="r6" depart="242" departPosLat="random"/>
    <vehicle id="r10_268" type="mixed" route="r10" depart="243" departPosLat="random"/>
    <vehicle id="r2_269" type="mixed" route="r2" depart="244" departPosLat="random"/>
    <vehicle id="r6_270" type="mixed" route="r6" depart="244" departPosLat="random"/>
    <vehicle id="r11_271" type="mixed" route="r11" depart="245" departPosLat="random"/>
    <vehicle id="r7_272" type="mixed" route="r7" depart="246" departPosLat="random"/>
    <vehicle id="r4_273" type="mixed" route="r4" depart="247" departPosLat="random"/>
    <vehicle id="r0_274" type="mixed" route="r0" depart="248" departPosLat="random"/>
    <vehicle id="r10_275" type="mixed" route="r10" depart="249" departPosLat="random"/>
    <vehicle id="r9_276" type="mixed" route="r9" depart="250" departPosLat="random"/>
    <vehicle id="r1_277" type="mixed" route="r1" depart="250" departPosLat="random"/>
    <vehicle id="r8_278" type="mixed" route="r8" depart="250" departPosLat="random"/>
    <vehicle id="r11_279" type="mixed" route="r11" depart="251" departPosLat="random"/>
    <vehicle id="r3_280" type="mixed" route="r3" depart="252" departPosLat="random"/>
    <vehicle id="r11_281" type="mixed" route="r11" depart="252" departPosLat="random"/>
    <vehicle id="r11_282" type="mixed" route="r11" depart="252" departPosLat="random"/>
    <vehicle id="r9_283" type="mixed" route="r9" depart="252" departPosLat="random"/>
    <vehicle id="r6_284" type="mixed" route="r6" depart="252" departPosLat="random"/>
    <vehicle id="r6_285" type="mixed" route="r6" depart="253" departPosLat="random"/>
    <vehicle id="r9_286" type="mixed" route="r9" depart="254" departPosLat="random"/>
    <vehicle id="r9_287" type="mixed" route="r9" depart="255" departPosLat="random"/>
    <vehicle id="r3_288" type="mixed" route="r3" depart="255" departPosLat="random"/>
    <vehicle id="r10_289" type="mixed" route="r10" depart="255" departPosLat="random"/>
    <vehicle id="r1_290" type="mixed" route="r1" depart="256" departPosLat="random"/>
    <vehicle id="r3_291" type="mixed" route="r3" depart="256" departPosLat="random"/>
    <vehicle id="r9_292" type="mixed" route="r9" depart="256" departPosLat="random"/>
    <vehicle id="r11_293" type="mixed" route="r11" depart="257" departPosLat="random"/>
    <vehicle id="r8_294" type="mixed" route="r8" depart="257" departPosLat="random"/>
    <vehicle id="r11_295" type="mixed" route="r11" depart="257" departPosLat="random"/>
    <vehicle id="r6_296" type="mixed" route="r6" depart="258" departPosLat="random"/>
    <vehicle id="r3_297" type="mixed" route="r3" depart="260" departPosLat="random"/>
    <vehicle id="r2_298" type="mixed" route="r2" depart="260" departPosLat="random"/>
    <vehicle id="r2_299" type="mixed" route="r2" depart="260" departPosLat="random"/>
    <vehicle id="r6_300" type="mixed" route="r6" depart="261" departPosLat="random"/>
    <vehicle id="r6_301" type="mixed" route="r6" depart="261" departPosLat="random"/>
    <vehicle id="r3_302" type="mixed" route="r3" depart="262" departPosLat="random"/>
    <vehicle id="r10_303" type="mixed" route="r10" depart="262" departPosLat="random"/>
    <vehicle id="r6_304" type="mixed" route="r6" depart="263" departPosLat="random"/>
    <vehicle id="r11_305" type="mixed" route="r11" depart="263" departPosLat="random"/>
    <vehicle id="r11_306" type="mixed" route="r11" depart="263" departPosLat="random"/>
    <vehicle id="r3_307" type="mixed" route="r3" depart="263" departPosLat="random"/>
    <vehicle id="r9_308" type="mixed" route="r9" depart="264" departPosLat="random"/>
    <vehicle id="r7_309" type="mixed" route="r7" depart="264" departPosLat="random"/>
    <vehicle id="r2_310" type="mixed" route="r2" depart="265" departPosLat="random"/>
    <vehicle id="r8_311" type="mixed" route="r8" depart="266" departPosLat="random"/>
    <vehicle id="r5_312" type="mixed" route="r5" depart="266" departPosLat="random"/>
    <vehicle id="r1_313" type="mixed" route="r1" depart="267" departPosLat="random"/>
    <vehicle id="r2_314" type="mixed" route="r2" depart="267" departPosLat="random"/>
    <vehicle id="r9_315" type="mixed" route="r9" depart="267" departPosLat="random"/>
    <vehicle id="r11_316" type="mixed" route="r11" depart="268" departPosLat="random"/>
    <vehicle id="r8_317" type="mixed" route="r8" depart="268" departPosLat="random"/>
    <vehicle id="r3_318" type="mixed" route="r3" depart="268" departPosLat="random"/>
    <vehicle id="r3_319" type="mixed" route="r3" depart="269" departPosLat="random"/>
    <vehicle id="r11_320" type="mixed" route="r11" depart="269" departPosLat="random"/>
    <vehicle id="r8_321" type="mixed" route="r8" depart="270" departPosLat="random"/>
    <vehicle id="r3_322" type="mixed" route="r3" depart="271" departPosLat="random"/>
    <vehicle id="r8_323" type="mixed" route="r8" depart="273" departPosLat="random"/>
    <vehicle id="r2_324" type="mixed" route="r2" depart="273" departPosLat="random"/>
    <vehicle id="r3_325" type="mixed" route="r3" depart="273" departPosLat="random"/>
    <vehicle id="r2_326" type="mixed" route="r2" depart="273" departPosLat="random"/>
    <vehicle id="r2_327" type="mixed" route="r2" depart="274" departPosLat="random"/>
    <vehicle id="r2_328" type="mixed" route="r2" depart="274" departPosLat="random"/>
    <vehicle id="r5_329" type="mixed" route="r5" depart="274" departPosLat="random"/>
    <vehicle id="r2_330" type="mixed" route="r2" depart="274" departPosLat="random"/>
    <vehicle id="r2_331" type="mixed" route="r2" depart="276" departPosLat="random"/>
    <vehicle id="r9_332" type="mixed" route="r9" depart="278" departPosLat="random"/>
    <vehicle id="r9_333" type="mixed" route="r9" depart="278" departPosLat="random"/>
    <vehicle id="r6_334" type="mixed" route="r6" depart="279" departPosLat="random"/>
    <vehicle id="r8_335" type="mixed" route="r8" depart="279" departPosLat="random"/>
    <vehicle id="r8_336" type="mixed" route="r8" depart="280" departPosLat="random"/>
    <vehicle id="r11_337" type="mixed" route="r11" depart="280" departPosLat="random"/>
    <vehicle id="r11_338" type="mixed" route="r11" depart="281" departPosLat="random"/>
    <vehicle id="r9_339" type="mixed" route="r9" depart="281" departPosLat="random"/>