<routes>
    <vTypeDistribution id="mixed">
        <vType id="car" vClass="passenger" speedDev="0.2" latAlignment="compact" probability="0.6"/>
        <vType id="moped" vClass="moped" speedDev="0.4" latAlignment="compact" probability="0.4"/>
    </vTypeDistribution>
    <route id="r0" edges="51o 1i 2o 52i"/>
    <route id="r1" edges="51o 1i 4o 54i"/>
    <route id="r2" edges="51o 1i 3o 53i"/>
    <route id="r3" edges="54o 4i 3o 53i"/>
    <route id="r4" edges="54o 4i 1o 51i"/>
    <route id="r5" edges="54o 4i 2o 52i"/>
    <route id="r6" edges="52o 2i 1o 51i"/>
    <route id="r7" edges="52o 2i 4o 54i"/>
    <route id="r8" edges="52o 2i 3o 53i"/>
    <route id="r9" edges="53o 3i 4o 54i"/>
    <route id="r10" edges="53o 3i 1o 51i"/>
    <route id="r11" edges="53o 3i 2o 52i"/>
    <vehicle id="r6_0" type="mixed" route="r6" depart="34" departPosLat="random"/>
    <vehicle id="r8_1" type="mixed" route="r8" depart="36" departPosLat="random"/>
    <vehicle id="r5_2" type="mixed" route="r5" depart="37" departPosLat="random"/>
    <vehicle id="r6_3" type="mixed" route="r6" depart="40" departPosLat="random"/>
    <vehicle id="r2_4" type="mixed" route="r2" depart="42" departPosLat="random"/>
    <vehicle id="r4_5" type="mixed" route="r4" depart="48" departPosLat="random"/>
    <vehicle id="r2_6" type="mixed" route="r2" depart="52" departPosLat="random"/>
    <vehicle id="r7_7" type="mixed" route="r7" depart="53" departPosLat="random"/>
    <vehicle id="r7_8" type="mixed" route="r7" depart="53" departPosLat="random"/>
    <vehicle id="r8_9" type="mixed" route="r8" depart="55" departPosLat="random"/>
    <vehicle id="r11_10" type="mixed" route="r11" depart="57" departPosLat="random"/>
    <vehicle id="r3_11" type="mixed" route="r3" depart="57" departPosLat="random"/>
    <vehicle id="r2_12" type="mixed" route="r2" depart="60" departPosLat="random"/>
    <vehicle id="r9_13" type="mixed" route="r9" depart="61" departPosLat="random"/>
    <vehicle id="r1_14" type="mixed" route="r1" depart="62" departPosLat="random"/>
    <vehicle id="r1_15" type="mixed" route="r1" depart="65" departPosLat="random"/>
    <vehicle id="r8_16" type="mixed" route="r8" depart="67" departPosLat="random"/>
    <vehicle id="r2_17" type="mixed" route="r2" depart="68" departPosLat="random"/>
    <vehicle id="r7_18" type="mixed" route="r7" depart="68" departPosLat="random"/>
    <vehicle id="r9_19" type="mixed" route="r9" depart="68" departPosLat="random"/>
    <vehicle id="r11_20" type="mixed" route="r11" depart="71" departPosLat="random"/>
    <vehicle id="r1_21" type="mixed" route="r1" depart="71" departPosLat="random"/>
    <vehicle id="r1_22" type="mixed" route="r1" depart="72" departPosLat="random"/>
    <vehicle id="r4_23" type="mixed" route="r4" depart="73" departPosLat="random"/>
    <vehicle id="r1_24" type="mixed" route="r1" depart="75" departPosLat="random"/>
    <vehicle id="r7_25" type="mixed" route="r7" depart="77" departPosLat="random"/>
    <vehicle id="r7_26" type="mixed" route="r7" depart="78" departPosLat="random"/>
    <vehicle id="r5_27" type="mixed" route="r5" depart="79" departPosLat="random"/>
    <vehicle id="r10_28" type="mixed" route="r10" depart="80" departPosLat="random"/>
    <vehicle id="r8_29" type="mixed" route="r8" depart="80" departPosLat="random"/>
    <vehicle id="r3_30" type="mixed" route="r3" depart="80" departPosLat="random"/>
    <vehicle id="r7_31" type="mixed" route="r7" depart="82" departPosLat="random"/>
    <vehicle id="r4_32" type="mixed" route="r4" depart="82" departPosLat="random"/>
    <vehicle id="r6_33" type="mixed" route="r6" depart="82" departPosLat="random"/>
    <vehicle id="r9_34" type="mixed" route="r9" depart="83" departPosLat="random"/>
    <vehicle id="r10_35" type="mixed" route="r10" depart="85" departPosLat="random"/>
    <vehicle id="r10_36" type="mixed" route="r10" depart="86" departPosLat="random"/>
    <vehicle id="r9_37" type="mixed" route="r9" depart="88" departPosLat="random"/>
    <vehicle id="r7_38" type="mixed" route="r7" depart="89" departPosLat="random"/>
    <vehicle id="r0_39" type="mixed" route="r0" depart="89" departPosLat="random"/>
    <vehicle id="r5_40" type="mixed" route="r5" depart="92" departPosLat="random"/>
    <vehicle id="r5_41" type="mixed" route="r5" depart="93" departPosLat="random"/>
    <vehicle id="r11_42" type="mixed" route="r11" depart="94" departPosLat="random"/>
    <vehicle id="r0_43" type="mixed" route="r0" depart="96" departPosLat="random"/>
    <vehicle id="r0_44" type="mixed" route="r0" depart="96" departPosLat="random"/>
    <vehicle id="r10_45" type="mixed" route="r10" depart="97" departPosLat="random"/>
    <vehicle id="r3_46" type="mixed" route="r3" depart="97" departPosLat="random"/>
    <vehicle id="r8_47" type="mixed" route="r8" depart="97" departPosLat="random"/>
    <vehicle id="r11_48" type="mixed" route="r11" depart="98" departPosLat="random"/>
    <vehicle id="r8_49" type="mixed" route="r8" depart="100" departPosLat="random"/>
    <vehicle id="r1_50" type="mixed" route="r1" depart="100" departPosLat="random"/>
    <vehicle id="r10_51" type="mixed" route="r10" depart="102" departPosLat="random"/>
    <vehicle id="r10_52" type="mixed" route="r10" depart="102" departPosLat="random"/>
    <vehicle id="r5_53" type="mixed" route="r5" depart="102" departPosLat="random"/>
    <vehicle id="r1_54" type="mixed" route="r1" depart="104" departPosLat="random"/>
    <vehicle id="r2_55" type="mixed" route="r2" depart="105" departPosLat="random"/>
    <vehicle id="r10_56" type="mixed" route="r10" depart="108" departPosLat="random"/>
    <vehicle id="r4_57" type="mixed" route="r4" depart="108" departPosLat="random"/>
    <vehicle id="r10_58" type="mixed" route="r10" depart="108" departPosLat="random"/>
    <vehicle id="r7_59" type="mixed" route="r7" depart="108" departPosLat="random"/>
    <vehicle id="r9_60" type="mixed" route="r9" depart="108" departPosLat="random"/>
    <vehicle id="r5_61" type="mixed" route="r5" depart="109" departPosLat="random"/>
    <vehicle id="r7_62" type="mixed" route="r7" depart="109" departPosLat="random"/>
    <vehicle id="r6_63" type="mixed" route="r6" depart="110" departPosLat="random"/>
    <vehicle id="r7_64" type="mixed" route="r7" depart="115" departPosLat="random"/>
    <vehicle id="r9_65" type="mixed" route="r9" depart="115" departPosLat="random"/>
    <vehicle id="r3_66" type="mixed" route="r3" depart="115" departPosLat="random"/>
    <vehicle id="r9_67" type="mixed" route="r9" depart="115" departPosLat="random"/>
    <vehicle id="r6_68" type="mixed" route="r6" depart="119" departPosLat="random"/>
    <vehicle id="r9_69" type="mixed" route="r9" depart="120" departPosLat="random"/>
    <vehicle id="r6_70" type="mixed" route="r6" depart="120" departPosLat="random"/>
    <vehicle id="r5_71" type="mixed" route="r5" depart="122" departPosLat="random"/>
    <vehicle id="r9_72" type="mixed" route="r9" depart="122" departPosLat="random"/>
    <vehicle id="r0_73" type="mixed" route="r0" depart="122" departPosLat="random"/>
    <vehicle id="r4_74" type="mixed" route="r4" depart="126" departPosLat="random"/>
    <vehicle id="r8_75" type="mixed" route="r8" depart="128" departPosLat="random"/>
    <vehicle id="r6_76" type="mixed" route="r6" depart="128" departPosLat="random"/>
    <vehicle id="r9_77" type="mixed" route="r9" depart="130" departPosLat="random"/>
    <vehicle id="r1_78" type="mixed" route="r1" depart="130" departPosLat="random"/>
    <vehicle id="r8_79" type="mixed" route="r8" depart="130" departPosLat="random"/>
    <vehicle id="r2_80" type="mixed" route="r2" depart="131" departPosLat="random"/>
    <vehicle id="r3_81" type="mixed" route="r3" depart="132" departPosLat="random"/>
    <vehicle id="r5_82" type="mixed" route="r5" depart="132" departPosLat="random"/>
    <vehicle id="r6_83" type="mixed" route="r6" depart="133" departPosLat="random"/>
    <vehicle id="r3_84" type="mixed" route="r3" depart="134" departPosLat="random"/>
    <vehicle id="r10_85" type="mixed" route="r10" depart="135" departPosLat="random"/>
    <vehicle id="r7_86" type="mixed" route="r7" depart="136" departPosLat="random"/>
    <vehicle id="r10_87" type="mixed" route="r10" depart="137" departPosLat="random"/>
    <vehicle id="r9_88" type="mixed" route="r9" depart="138" departPosLat="random"/>
    <vehicle id="r7_89" type="mixed" route="r7" depart="139" departPosLat="random"/>
    <vehicle id="r0_90" type="mixed" route="r0" depart="139" departPosLat="random"/>
    <vehicle id="r4_91" type="mixed" route="r4" depart="140" departPosLat="random"/>
    <vehicle id="r4_92" type="mixed" route="r4" depart="140" departPosLat="random"/>
    <vehicle id="r6_93" type="mixed" route="r6" depart="141" departPosLat="random"/>
    <vehicle id="r5_94" type="mixed" route="r5" depart="141" departPosLat="random"/>
    <vehicle id="r11_95" type="mixed" route="r11" depart="142" departPosLat="random"/>
    <vehicle id="r9_96" type="mixed" route="r9" depart="142" departPosLat="random"/>
    <vehicle id="r1_97" type="mixed" route="r1" depart="143" departPosLat="random"/>
    <vehicle id="r9_98" type="mixed" route="r9" depart="145" departPosLat="random"/>
    <vehicle id="r5_99" type="mixed" route="r5" depart="145" departPosLat="random"/>
    <vehicle id="r5_100" type="mixed" route="r5" depart="146" departPosLat="random"/>
    <vehicle id="r5_101" type="mixed" route="r5" depart="146" departPosLat="random"/>
    <vehicle id="r1_102" type="mixed" route="r1" depart="147" departPosLat="random"/>
    <vehicle id="r10_103" type="mixed" route="r10" depart="148" departPosLat="random"/>
    <vehicle id="r9_104" type="mixed" route="r9" depart="148" departPosLat="random"/>
    <vehicle id="r8_105" type="mixed" route="r8" depart="148" departPosLat="random"/>
    <vehicle id="r0_106" type="mixed" route="r0" depart="149" departPosLat="random"/>
    <vehicle id="r5_107" type="mixed" route="r5" depart="149" departPosLat="random"/>
    <vehicle id="r4_108" type="mixed" route="r4" depart="149" departPosLat="random"/>
    <vehicle id="r7_109" type="mixed" route="r7" depart="149" departPosLat="random"/>
    <vehicle id="r4_110" type="mixed" route="r4" depart="151" departPosLat="random"/>
    <vehicle id="r8_111" type="mixed" route="r8" depart="151" departPosLat="random"/>
    <vehicle id="r5_112" type="mixed" route="r5" depart="152" departPosLat="random"/>
    <vehicle id="r2_113" type="mixed" route="r2" depart="152" departPosLat="random"/>
    <vehicle id="r7_114" type="mixed" route="r7" depart="153" departPosLat="random"/>
    <vehicle id="r11_115" type="mixed" route="r11" depart="154" departPosLat="random"/>
    <vehicle id="r0_116" type="mixed" route="r0" depart="155" departPosLat="random"/>
    <vehicle id="r3_117" type="mixed" route="r3" depart="155" departPosLat="random"/>
    <vehicle id="r0_118" type="mixed" route="r0" depart="155" departPosLat="random"/>
    <vehicle id="r4_119" type="mixed" route="r4" depart="155" departPosLat="random"/>
    <vehicle id="r2_120" type="mixed" route="r2" depart="156" departPosLat="random"/>
    <vehicle id="r9_121" type="mixed" route="r9" depart="157" departPosLat="random"/>
    <vehicle id="r8_122" type="mixed" route="r8" depart="157" departPosLat="random"/>
    <vehicle id="r4_123" type="mixed" route="r4" depart="157" departPosLat="random"/>
    <vehicle id="r8_124" type="mixed" route="r8" depart="160" departPosLat="random"/>
    <vehicle id="r9_125" type="mixed" route="r9" depart="160" departPosLat="random"/>
    <vehicle id="r11_126" type="mixed" route="r11" depart="160" departPosLat="random"/>
    <vehicle id="r5_127" type="mixed" route="r5" depart="162" departPosLat="random"/>
    <vehicle id="r8_128" type="mixed" route="r8" depart="163" departPosLat="random"/>
    <vehicle id="r8_129" type="mixed" route="r8" depart="163" departPosLat="random"/>
    <vehicle id="r9_130" type="mixed" route="r9" depart="164" departPosLat="random"/>
    <vehicle id="r6_131" type="mixed" route="r6" depart="164" departPosLat="random"/>
    <vehicle id="r9_132" type="mixed" route="r9" depart="164" departPosLat="random"/>
    <vehicle id="r3_133" type="mixed" route="r3" depart="165" departPosLat="random"/>
    <vehicle id="r5_134" type="mixed" route="r5" depart="166" departPosLat="random"/>
    <vehicle id="r7_135" type="mixed" route="r7" depart="168" departPosLat="random"/>
    <vehicle id="r6_136" type="mixed" route="r6" depart="168" departPosLat="random"/>
    <vehicle id="r4_137" type="mixed" route="r4" depart="168" departPosLat="random"/>
    <vehicle id="r11_138" type="mixed" route="r11" depart="169" departPosLat="random"/>
    <vehicle id="r1_139" type="mixed" route="r1" depart="171" departPosLat="random"/>
    <vehicle id="r8_140" type="mixed" route="r8" depart="171" departPosLat="random"/>
    <vehicle id="r1_141" type="mixed" route="r1" depart="171" departPosLat="random"/>
    <vehicle id="r9_142" type="mixed" route="r9" depart="172" departPosLat="random"/>
    <vehicle id="r3_143" type="mixed" route="r3" depart="172" departPosLat="random"/>
    <vehicle id="r7_144" type="mixed" route="r7" depart="173" departPosLat="random"/>
    <vehicle id="r11_145" type="mixed" route="r11" depart="174" departPosLat="random"/>
    <vehicle id="r7_146" type="mixed" route="r7" depart="174" departPosLat="random"/>
    <vehicle id="r10_147" type="mixed" route="r10" depart="175" departPosLat="random"/>
    <vehicle id="r3_148" type="mixed" route="r3" depart="175" departPosLat="random"/>
    <vehicle id="r10_149" type="mixed" route="r10" depart="176" departPosLat="random"/>
    <vehicle id="r11_150" type="mixed" route="r11" depart="176" departPosLat="random"/>
    <vehicle id="r0_151" type="mixed" route="r0" depart="176" departPosLat="random"/>
    <vehicle id="r10_152" type="mixed" route="r10" depart="177" departPosLat="random"/>
    <vehicle id="r9_153" type="mixed" route="r9" depart="177" departPosLat="random"/>
    <vehicle id="r2_154" type="mixed" route="r2" depart="177" departPosLat="random"/>
    <vehicle id="r6_155" type="mixed" route="r6" depart="178" departPosLat="random"/>
    <vehicle id="r6_156" type="mixed" route="r6" depart="178" departPosLat="random"/>
    <vehicle id="r0_157" type="mixed" route="r0" depart="179" departPosLat="random"/>
    <vehicle id="r1_158" type="mixed" route="r1" depart="179" departPosLat="random"/>
    <vehicle id="r8_159" type="mixed" route="r8" depart="179" departPosLat="random"/>
    <vehicle id="r7_160" type="mixed" route="r7" depart="179" departPosLat="random"/>
    <vehicle id="r9_161" type="mixed" route="r9" depart="180" departPosLat="random"/>
    <vehicle id="r0_162" type="mixed" route="r0" depart="182" departPosLat="random"/>
    <vehicle id="r2_163" type="mixed" route="r2" depart="182" departPosLat="random"/>
    <vehicle id="r4_164" type="mixed" route="r4" depart="184" departPosLat="random"/>
    <vehicle id="r6_165" type="mixed" route="r6" depart="185" departPosLat="random"/>
    <vehicle id="r5_166" type="mixed" route="r5" depart="185" departPosLat="random"/>
    <vehicle id="r11_167" type="mixed" route="r11" depart="185" departPosLat="random"/>
    <vehicle id="r9_168" type="mixed" route="r9" depart="186" departPosLat="random"/>
    <vehicle id="r2_169" type="mixed" route="r2" depart="186" departPosLat="random"/>
    <vehicle id="r11_170" type="mixed" route="r11" depart="186" departPosLat="random"/>
    <vehicle id="r3_171" type="mixed" route="r3" depart="186" departPosLat="random"/>
    <vehicle id="r11_172" type="mixed" route="r11" depart="187" departPosLat="random"/>
    <vehicle id="r5_173" type="mixed" route="r5" depart="190" departPosLat="random"/>
    <vehicle id="r6_174" type="mixed" route="r6" depart="190" departPosLat="random"/>
    <vehicle id="r0_175" type="mixed" route="r0" depart="191" departPosLat="random"/>
    <vehicle id="r9_176" type="mixed" route="r9" depart="192" departPosLat="random"/>
    <vehicle id="r11_177" type="mixed" route="r11" depart="192" departPosLat="random"/>
    <vehicle id="r8_178" type="mixed" route="r8" depart="192" departPosLat="random"/>
    <vehicle id="r8_179" type="mixed" route="r8" depart="193" departPosLat="random"/>
    <vehicle id="r7_180" type="mixed" route="r7" depart="194" departPosLat="random"/>
    <vehicle id="r10_181" type="mixed" route="r10" depart="194" departPosLat="random"/>
    <vehicle id="r5_182" type="mixed" route="r5" depart="194" departPosLat="random"/>
    <vehicle id="r7_183" type="mixed" route="r7" depart="194" departPosLat="random"/>
    <vehicle id="r8_184" type="mixed" route="r8" depart="194" departPosLat="random"/>
    <vehicle id="r4_185" type="mixed" route="r4" depart="194" departPosLat="random"/>
    <vehicle id="r6_186" type="mixed" route="r6" depart="195" departPosLat="random"/>
    <vehicle id="r11_187" type="mixed" route="r11" depart="195" departPosLat="random"/>
    <vehicle id="r0_188" type="mixed" route="r0" depart="196" departPosLat="random"/>
    <vehicle id="r5_189" type="mixed" route="r5" depart="198" departPosLat="random"/>
    <vehicle id="r0_190" type="mixed" route="r0" depart="199" departPosLat="random"/>
    <vehicle id="r3_191" type="mixed" route="r3" depart="201" departPosLat="random"/>
    <vehicle id="r2_192" type="mixed" route="r2" depart="202" departPosLat="random"/>
    <vehicle id="r10_193" type="mixed" route="r10" depart="202" departPosLat="random"/>
    <vehicle id="r2_194" type="mixed" route="r2" depart="203" departPosLat="random"/>
    <vehicle id="r0_195" type="mixed" route="r0" depart="203" departPosLat="random"/>
    <vehicle id="r11_196" type="mixed" route="r11" depart="203" departPosLat="random"/>
    <vehicle id="r1_197" type="mixed" route="r1" depart="204" departPosLat="random"/>
    <vehicle id="r5_198" type="mixed" route="r5" depart="204" departPosLat="random"/>
    <vehicle id="r0_199" type="mixed" route="r0" depart="204" departPosLat="random"/>
    <vehicle id="r9_200" type="mixed" route="r9" depart="205" departPosLat="random"/>
    <vehicle id="r4_201" type="mixed" route="r4" depart="205" departPosLat="random"/>
    <vehicle id="r8_202" type="mixed" route="r8" depart="206" departPosLat="random"/>
    <vehicle id="r6_203" type="mixed" route="r6" depart="206" departPosLat="random"/>
    <vehicle id="r0_204" type="mixed" route="r0" depart="206" departPosLat="random"/>
    <vehicle id="r8_205" type="mixed" route="r8" depart="206" departPosLat="random"/>
    <vehicle id="r6_206" type="mixed" route="r6" depart="208" departPosLat="random"/>
    <vehicle id="r6_207" type="mixed" route="r6" depart="209" departPosLat="random"/>
    <vehicle id="r11_208" type="mixed" route="r11" depart="209" departPosLat="random"/>
    <vehicle id="r11_209" type="mixed" route="r11" depart="209" departPosLat="random"/>
    <vehicle id="r7_210" type="mixed" route="r7" depart="210" departPosLat="random"/>
    <vehicle id="r0_211" type="mixed" route="r0" depart="210" departPosLat="random"/>
    <vehicle id="r10_212" type="mixed" route="r10" depart="211" departPosLat="random"/>
    <vehicle id="r8_213" type="mixed" route="r8" depart="211" departPosLat="random"/>
    <vehicle id="r1_214" type="mixed" route="r1" depart="211" departPosLat="random"/>
    <vehicle id="r3_215" type="mixed" route="r3" depart="212" departPosLat="random"/>
    <vehicle id="r8_216" type="mixed" route="r8" depart="213" departPosLat="random"/>
    <vehicle id="r11_217" type="mixed" route="r11" depart="214" departPosLat="random"/>
    <vehicle id="r3_218" type="mixed" route="r3" depart="215" departPosLat="random"/>
    <vehicle id="r4_219" type="mixed" route="r4" depart="215" departPosLat="random"/>
    <vehicle id="r7_220" type="mixed" route="r7" depart="216" departPosLat="random"/>
    <vehicle id="r6_221" type="mixed" route="r6" depart="216" departPosLat="random"/>
    <vehicle id="r10_222" type="mixed" route="r10" depart="217" departPosLat="random"/>
    <vehicle id="r4_223" type="mixed" route="r4" depart="217" departPosLat="random"/>
    <vehicle id="r6_224" type="mixed" route="r6" depart="218" departPosLat="random"/>
    <vehicle id="r4_225" type="mixed" route="r4" depart="218" departPosLat="random"/>
    <vehicle id="r6_226" type="mixed" route="r6" depart="218" departPosLat="random"/>
    <vehicle id="r4_227" type="mixed" route="r4" depart="219" departPosLat="random"/>
    <vehicle id="r2_228" type="mixed" route="r2" depart="219" departPosLat="random"/>
    <vehicle id="r3_229" type="mixed" route="r3" depart="220" departPosLat="random"/>
    <vehicle id="r0_230" type="mixed" route="r0" depart="220" departPosLat="random"/>
    <vehicle id="r11_231" type="mixed" route="r11" depart="220" departPosLat="random"/>
    <vehicle id="r10_232" type="mixed" route="r10" depart="221" departPosLat="random"/>
    <vehicle id="r2_233" type="mixed" route="r2" depart="221" departPosLat="random"/>
    <vehicle id="r8_234" type="mixed" route="r8" depart="221" departPosLat="random"/>
    <vehicle id="r2_235" type="mixed" route="r2" depart="221" departPosLat="random"/>
    <vehicle id="r7_236" type="mixed" route="r7" depart="222" departPosLat="random"/>
    <vehicle id="r5_237" type="mixed" route="r5" depart="223" departPosLat="random"/>
    <vehicle id="r2_238" type="mixed" route="r2" depart="224" departPosLat="random"/>
    <vehicle id="r0_239" type="mixed" route="r0" depart="224" departPosLat="random"/>
    <vehicle id="r4_240" type="mixed" route="r4" depart="224" departPosLat="random"/>
    <vehicle id="r0_241" type="mixed" route="r0" depart="224" departPosLat="random"/>
    <vehicle id="r4_242" type="mixed" route="r4" depart="224" departPosLat="random"/>
    <vehicle id="r3_243" type="mixed" route="r3" depart="224" departPosLat="random"/>
    <vehicle id="r5_244" type="mixed" route="r5" depart="225" departPosLat="random"/>
    <vehicle id="r1_245" type="mixed" route="r1" depart="226" departPosLat="random"/>
    <vehicle id="r4_246" type="mixed" route="r4" depart="226" departPosLat="random"/>
    <vehicle id="r8_247" type="mixed" route="r8" depart="226" departPosLat="random"/>
    <vehicle id="r5_248" type="mixed" route="r5" depart="227" departPosLat="random"/>
    <vehicle id="r5_249" type="mixed" route="r5" depart="227" departPosLat="random"/>
    <vehicle id="r0_250" type="mixed" route="r0" depart="227" departPosLat="random"/>
    <vehicle id="r11_251" type="mixed" route="r11" depart="227" departPosLat="random"/>
    <vehicle id="r0_252" type="mixed" route="r0" depart="228" departPosLat="random"/>
    <vehicle id="r9_253" type="mixed" route="r9" depart="228" departPosLat="random"/>
    <vehicle id="r2_254" type="mixed" route="r2" depart="230" departPosLat="random"/>
    <vehicle id="r8_255" type="mixed" route="r8" depart="231" departPosLat="random"/>
    <vehicle id="r8_256" type="mixed" route="r8" depart="233" departPosLat="random"/>
    <vehicle id="r4_257" type="mixed" route="r4" depart="233" departPosLat="random"/>
    <vehicle id="r3_258" type="mixed" route="r3" depart="234" departPosLat="random"/>
    <vehicle id="r0_259" type="mixed" route="r0" depart="235" departPosLat="random"/>
    <vehicle id="r9_260" type="mixed" route="r9" depart="236" departPosLat="random"/>
    <vehicle id="r9_261" type="mixed" route="r9" depart="237" departPosLat="random"/>
    <vehicle id="r11_262" type="mixed" route="r11" depart="239" departPosLat="random"/>
    <vehicle id="r2_263" type="mixed" route="r2" depart="240" departPosLat="random"/>
    <vehicle id="r9_264" type="mixed" route="r9" depart="240" departPosLat="random"/>
    <vehicle id="r9_265" type="mixed" route="r9" depart="240" departPosLat="random"/>
    <vehicle id="r4_266" type="mixed" route="r4" depart="241" departPosLat="random"/>
    <vehicle id="r11_267" type="mixed" route="r11" depart="242" departPosLat="random"/>
    <vehicle id="r0_268" type="mixed" route="r0" depart="243" departPosLat="random"/>
    <vehicle id="r6_269" type="mixed" route="r6" depart="244" departPosLat="random"/>
    <vehicle id="r8_270" type="mixed" route="r8" depart="244" departPosLat="random"/>
    <vehicle id="r4_271" type="mixed" route="r4" depart="245" departPosLat="random"/>
    <vehicle id="r1_272" type="mixed" route="r1" depart="246" departPosLat="random"/>
    <vehicle id="r2_273" type="mixed" route="r2" depart="247" departPosLat="random"/>
    <vehicle id="r4_274" type="mixed" route="r4" depart="248" departPosLat="random"/>
    <vehicle id="r5_275" type="mixed" route="r5" depart="249" departPosLat="random"/>
    <vehicle id="r2_276" type="mixed" route="r2" depart="250" departPosLat="random"/>
    <vehicle id="r8_277" type="mixed" route="r8" depart="250" departPosLat="random"/>
    <vehicle id="r6_278" type="mixed" route="r6" depart="250" departPosLat="random"/>
    <vehicle id="r3_279" type="mixed" route="r3" depart="251" departPosLat="random"/>
    <vehicle id="r9_280" type="mixed" route="r9" depart="252" departPosLat="random"/>
    <vehicle id="r3_281" type="mixed" route="r3" depart="252" departPosLat="random"/>
    <vehicle id="r10_282" type="mixed" route="r10" depart="252" departPosLat="random"/>
    <vehicle id="r10_283" type="mixed" route="r10" depart="252" departPosLat="random"/>
    <vehicle id="r10_284" type="mixed" route="r10" depart="252" departPosLat="random"/>
    <vehicle id="r2_285" type="mixed" route="r2" depart="253" departPosLat="random"/>
    <vehicle id="r1_286" type="mixed" route="r1" depart="254" departPosLat="random"/>
    <vehicle id="r2_287" type="mixed" route="r2" depart="255" departPosLat="random"/>
    <vehicle id="r2_288" type="mixed" route="r2" depart="255" departPosLat="random"/>
    <vehicle id="r4_289" type="mixed" route="r4" depart="255" departPosLat="random"/>
    <vehicle id="r5_290" type="mixed" route="r5" depart="256" departPosLat="random"/>
    <vehicle id="r6_291" type="mixed" route="r6" depart="256" departPosLat="random"/>
    <vehicle id="r4_292" type="mixed" route="r4" depart="256" departPosLat="random"/>
    <vehicle id="r0_293" type="mixed" route="r0" depart="257" departPosLat="random"/>
    <vehicle id="r2_294" type="mixed" route="r2" depart="257" departPosLat="random"/>
    <vehicle id="r0_295" type="mixed" route="r0" depart="257" departPosLat="random"/>
    <vehicle id="r7_296" type="mixed" route="r7" depart="258" departPosLat="random"/>
    <vehicle id="r8_297" type="mixed" route="r8" depart="260" departPosLat="random"/>
    <vehicle id="r11_298" type="mixed" route="r11" depart="260" departPosLat="random"/>
    <vehicle id="r9_299" type="mixed" route="r9" depart="260" departPosLat="random"/>
    <vehicle id="r8_300" type="mixed" route="r8" depart="261" departPosLat="random"/>
    <vehicle id="r4_301" type="mixed" route="r4" depart="261" departPosLat="random"/>
    <vehicle id="r2_302" type="mixed" route="r2" depart="262" departPosLat="random"/>
    <vehicle id="r6_303" type="mixed" route="r6" depart="262" departPosLat="random"/>
    <vehicle id="r10_304" type="mixed" route="r10" depart="263" departPosLat="random"/>
    <vehicle id="r11_305" type="mixed" route="r11" depart="263" departPosLat="random"/>
    <vehicle id="r2_306" type="mixed" route="r2" depart="263" departPosLat="random"/>
    <vehicle id="r7_307" type="mixed" route="r7" depart="263" departPosLat="random"/>
    <vehicle id="r2_308" type="mixed" route="r2" depart="264" departPosLat="random"/>
    <vehicle id="r8_309" type="mixed" route="r8" depart="264" departPosLat="random"/>
    <vehicle id="r8_310" type="mixed" route="r8" depart="265" departPosLat="random"/>
    <vehicle id="r11_311" type="mixed" route="r11" depart="266" departPosLat="random"/>
    <vehicle id="r10_312" type="mixed" route="r10" depart="266" departPosLat="random"/>
    <vehicle id="r5_313" type="mixed" route="r5" depart="267" departPosLat="random"/>
    <vehicle id="r3_314" type="mixed" route="r3" depart="267" departPosLat="random"/>
    <vehicle id="r5_315" type="mixed" route="r5" depart="267" departPosLat="random"/>
    <vehicle id="r0_316" type="mixed" route="r0" depart="268" departPosLat="random"/>
    <vehicle id="r6_317" type="mixed" route="r6" depart="268" departPosLat="random"/>
    <vehicle id="r4_318" type="mixed" route="r4" depart="268" departPosLat="random"/>
    <vehicle id="r10_319" type="mixed" route="r10" depart="269" departPosLat="random"/>
    <vehicle id="r5_320" type="mixed" route="r5" depart="269" departPosLat="random"/>
    <vehicle id="r3_321" type="mixed" route="r3" depart="270" departPosLat="random"/>
    <vehicle id="r2_322" type="mixed" route="r2" depart="271" departPosLat="random"/>
    <vehicle id="r4_323" type="mixed" route="r4" depart="273" departPosLat="random"/>
    <vehicle id="r3_324" type="mixed" route="r3" depart="273" departPosLat="random"/>
    <vehicle id="r2_325" type="mixed" route="r2" depart="273" departPosLat="random"/>
    <vehicle id="r7_326" type="mixed" route="r7" depart="273" departPosLat="random"/>
    <vehicle id="r11_327" type="mixed" route="r11" depart="274" departPosLat="random"/>
    <vehicle id="r1_328" type="mixed" route="r1" depart="274" departPosLat="random"/>
    <vehicle id="r6_329" type="mixed" route="r6" depart="274" departPosLat="random"/>
    <vehicle id="r7_330" type="mixed" route="r7" depart="274" departPosLat="random"/>
    <vehicle id="r11_331" type="mixed" route="r11" depart="276" departPosLat="random"/>
    <vehicle id="r4_332" type="mixed" route="r4" depart="278" departPosLat="random"/>
    <vehicle id="r7_333" type="mixed" route="r7" depart="278" departPosLat="random"/>
    <vehicle id="r7_334" type="mixed" route="r7" depart="279" departPosLat="random"/>
    <vehicle id="r8_335" type="mixed" route="r8" depart="279" departPosLat="random"/>
    <vehicle id="r4_336" type="mixed" route="r4" depart="280" departPosLat="random"/>
    <vehicle id="r7_337" type="mixed" route="r7" depart="280" departPosLat="random"/>
    <vehicle id="r1_338" type="mixed" route="r1" depart="281" departPosLat="random"/>
    <vehicle id="r10_339" type="mixed" route="r10" depart="281" departPosLat="random"/>