<routes>
    <vTypeDistribution id="mixed">
        <vType id="car" vClass="passenger" speedDev="0.2" latAlignment="compact" probability="0.6"/>
        <vType id="moped" vClass="moped" speedDev="0.4" latAlignment="compact" probability="0.4"/>
    </vTypeDistribution>
    <route id="r0" edges="51o 1i 2o 52i"/>
    <route id="r1" edges="51o 1i 4o 54i"/>
    <route id="r2" edges="51o 1i 3o 53i"/>
    <route id="r3" edges="54o 4i 3o 53i"/>
    <route id="r4" edges="54o 4i 1o 51i"/>
    <route id="r5" edges="54o 4i 2o 52i"/>
    <route id="r6" edges="52o 2i 1o 51i"/>
    <route id="r7" edges="52o 2i 4o 54i"/>
    <route id="r8" edges="52o 2i 3o 53i"/>
    <route id="r9" edges="53o 3i 4o 54i"/>
    <route id="r10" edges="53o 3i 1o 51i"/>
    <route id="r11" edges="53o 3i 2o 52i"/>
    <vehicle id="r8_0" type="mixed" route="r8" depart="34" departPosLat="random"/>
    <vehicle id="r1_1" type="mixed" route="r1" depart="36" departPosLat="random"/>
    <vehicle id="r1_2" type="mixed" route="r1" depart="37" departPosLat="random"/>
    <vehicle id="r3_3" type="mixed" route="r3" depart="40" departPosLat="random"/>
    <vehicle id="r6_4" type="mixed" route="r6" depart="42" departPosLat="random"/>
    <vehicle id="r1_5" type="mixed" route="r1" depart="48" departPosLat="random"/>
    <vehicle id="r6_6" type="mixed" route="r6" depart="52" departPosLat="random"/>
    <vehicle id="r0_7" type="mixed" route="r0" depart="53" departPosLat="random"/>
    <vehicle id="r10_8" type="mixed" route="r10" depart="53" departPosLat="random"/>
    <vehicle id="r8_9" type="mixed" route="r8" depart="55" departPosLat="random"/>
    <vehicle id="r11_10" type="mixed" route="r11" depart="57" departPosLat="random"/>
    <vehicle id="r11_11" type="mixed" route="r11" depart="57" departPosLat="random"/>
    <vehicle id="r6_12" type="mixed" route="r6" depart="60" departPosLat="random"/>
    <vehicle id="r0_13" type="mixed" route="r0" depart="61" departPosLat="random"/>
    <vehicle id="r10_14" type="mixed" route="r10" depart="62" departPosLat="random"/>
    <vehicle id="r0_15" type="mixed" route="r0" depart="65" departPosLat="random"/>
    <vehicle id="r3_16" type="mixed" route="r3" depart="67" departPosLat="random"/>
    <vehicle id="r0_17" type="mixed" route="r0" depart="68" departPosLat="random"/>
    <vehicle id="r2_18" type="mixed" route="r2" depart="68" departPosLat="random"/>
    <vehicle id="r3_19" type="mixed" route="r3" depart="68" departPosLat="random"/>
    <vehicle id="r4_20" type="mixed" route="r4" depart="71" departPosLat="random"/>
    <vehicle id="r4_21" type="mixed" route="r4" depart="71" departPosLat="random"/>
    <vehicle id="r10_22" type="mixed" route="r10" depart="72" departPosLat="random"/>
    <vehicle id="r6_23" type="mixed" route="r6" depart="73" departPosLat="random"/>
    <vehicle id="r3_24" type="mixed" route="r3" depart="75" departPosLat="random"/>
    <vehicle id="r1_25" type="mixed" route="r1" depart="77" departPosLat="random"/>
    <vehicle id="r3_26" type="mixed" route="r3" depart="78" departPosLat="random"/>
    <vehicle id="r3_27" type="mixed" route="r3" depart="79" departPosLat="random"/>
    <vehicle id="r3_28" type="mixed" route="r3" depart="80" departPosLat="random"/>
    <vehicle id="r2_29" type="mixed" route="r2" depart="80" departPosLat="random"/>
    <vehicle id="r11_30" type="mixed" route="r11" depart="80" departPosLat="random"/>
    <vehicle id="r6_31" type="mixed" route="r6" depart="82" departPosLat="random"/>
    <vehicle id="r1_32" type="mixed" route="r1" depart="82" departPosLat="random"/>
    <vehicle id="r2_33" type="mixed" route="r2" depart="82" departPosLat="random"/>
    <vehicle id="r3_34" type="mixed" route="r3" depart="83" departPosLat="random"/>
    <vehicle id="r9_35" type="mixed" route="r9" depart="85" departPosLat="random"/>
    <vehicle id="r0_36" type="mixed" route="r0" depart="86" departPosLat="random"/>
    <vehicle id="r7_37" type="mixed" route="r7" depart="88" departPosLat="random"/>
    <vehicle id="r9_38" type="mixed" route="r9" depart="89" departPosLat="random"/>
    <vehicle id="r1_39" type="mixed" route="r1" depart="89" departPosLat="random"/>
    <vehicle id="r6_40" type="mixed" route="r6" depart="92" departPosLat="random"/>
    <vehicle id="r7_41" type="mixed" route="r7" depart="93" departPosLat="random"/>
    <vehicle id="r11_42" type="mixed" route="r11" depart="94" departPosLat="random"/>
    <vehicle id="r2_43" type="mixed" route="r2" depart="96" departPosLat="random"/>
    <vehicle id="r3_44" type="mixed" route="r3" depart="96" departPosLat="random"/>
    <vehicle id="r7_45" type="mixed" route="r7" depart="97" departPosLat="random"/>
    <vehicle id="r5_46" type="mixed" route="r5" depart="97" departPosLat="random"/>
    <vehicle id="r3_47" type="mixed" route="r3" depart="97" departPosLat="random"/>
    <vehicle id="r5_48" type="mixed" route="r5" depart="98" departPosLat="random"/>
    <vehicle id="r1_49" type="mixed" route="r1" depart="100" departPosLat="random"/>
    <vehicle id="r11_50" type="mixed" route="r11" depart="100" departPosLat="random"/>
    <vehicle id="r4_51" type="mixed" route="r4" depart="102" departPosLat="random"/>
    <vehicle id="r0_52" type="mixed" route="r0" depart="102" departPosLat="random"/>
    <vehicle id="r7_53" type="mixed" route="r7" depart="102" departPosLat="random"/>
    <vehicle id="r10_54" type="mixed" route="r10" depart="104" departPosLat="random"/>
    <vehicle id="r9_55" type="mixed" route="r9" depart="105" departPosLat="random"/>
    <vehicle id="r8_56" type="mixed" route="r8" depart="108" departPosLat="random"/>
    <vehicle id="r6_57" type="mixed" route="r6" depart="108" departPosLat="random"/>
    <vehicle id="r11_58" type="mixed" route="r11" depart="108" departPosLat="random"/>
    <vehicle id="r3_59" type="mixed" route="r3" depart="108" departPosLat="random"/>
    <vehicle id="r1_60" type="mixed" route="r1" depart="108" departPosLat="random"/>
    <vehicle id="r4_61" type="mixed" route="r4" depart="109" departPosLat="random"/>
    <vehicle id="r4_62" type="mixed" route="r4" depart="109" departPosLat="random"/>
    <vehicle id="r4_63" type="mixed" route="r4" depart="110" departPosLat="random"/>
    <vehicle id="r3_64" type="mixed" route="r3" depart="115" departPosLat="random"/>
    <vehicle id="r9_65" type="mixed" route="r9" depart="115" departPosLat="random"/>
    <vehicle id="r2_66" type="mixed" route="r2" depart="115" departPosLat="random"/>
    <vehicle id="r6_67" type="mixed" route="r6" depart="115" departPosLat="random"/>
    <vehicle id="r6_68" type="mixed" route="r6" depart="119" departPosLat="random"/>
    <vehicle id="r0_69" type="mixed" route="r0" depart="120" departPosLat="random"/>
    <vehicle id="r3_70" type="mixed" route="r3" depart="120" departPosLat="random"/>
    <vehicle id="r4_71" type="mixed" route="r4" depart="122" departPosLat="random"/>
    <vehicle id="r7_72" type="mixed" route="r7" depart="122" departPosLat="random"/>
    <vehicle id="r7_73" type="mixed" route="r7" depart="122" departPosLat="random"/>
    <vehicle id="r6_74" type="mixed" route="r6" depart="126" departPosLat="random"/>
    <vehicle id="r2_75" type="mixed" route="r2" depart="128" departPosLat="random"/>
    <vehicle id="r2_76" type="mixed" route="r2" depart="128" departPosLat="random"/>
    <vehicle id="r1_77" type="mixed" route="r1" depart="130" departPosLat="random"/>
    <vehicle id="r9_78" type="mixed" route="r9" depart="130" departPosLat="random"/>
    <vehicle id="r10_79" type="mixed" route="r10" depart="130" departPosLat="random"/>
    <vehicle id="r10_80" type="mixed" route="r10" depart="131" departPosLat="random"/>
    <vehicle id="r5_81" type="mixed" route="r5" depart="132" departPosLat="random"/>
    <vehicle id="r3_82" type="mixed" route="r3" depart="132" departPosLat="random"/>
    <vehicle id="r1_83" type="mixed" route="r1" depart="133" departPosLat="random"/>
    <vehicle id="r1_84" type="mixed" route="r1" depart="134" departPosLat="random"/>
    <vehicle id="r5_85" type="mixed" route="r5" depart="135" departPosLat="random"/>
    <vehicle id="r5_86" type="mixed" route="r5" depart="136" departPosLat="random"/>
    <vehicle id="r5_87" type="mixed" route="r5" depart="137" departPosLat="random"/>
    <vehicle id="r10_88" type="mixed" route="r10" depart="138" departPosLat="random"/>
    <vehicle id="r11_89" type="mixed" route="r11" depart="139" departPosLat="random"/>
    <vehicle id="r1_90" type="mixed" route="r1" depart="139" departPosLat="random"/>
    <vehicle id="r5_91" type="mixed" route="r5" depart="140" departPosLat="random"/>
    <vehicle id="r9_92" type="mixed" route="r9" depart="140" departPosLat="random"/>
    <vehicle id="r7_93" type="mixed" route="r7" depart="141" departPosLat="random"/>
    <vehicle id="r6_94" type="mixed" route="r6" depart="141" departPosLat="random"/>
    <vehicle id="r11_95" type="mixed" route="r11" depart="142" departPosLat="random"/>
    <vehicle id="r8_96" type="mixed" route="r8" depart="142" departPosLat="random"/>
    <vehicle id="r5_97" type="mixed" route="r5" depart="143" departPosLat="random"/>
    <vehicle id="r5_98" type="mixed" route="r5" depart="145" departPosLat="random"/>
    <vehicle id="r6_99" type="mixed" route="r6" depart="145" departPosLat="random"/>
    <vehicle id="r10_100" type="mixed" route="r10" depart="146" departPosLat="random"/>
    <vehicle id="r4_101" type="mixed" route="r4" depart="146" departPosLat="random"/>
    <vehicle id="r3_102" type="mixed" route="r3" depart="147" departPosLat="random"/>
    <vehicle id="r8_103" type="mixed" route="r8" depart="148" departPosLat="random"/>
    <vehicle id="r2_104" type="mixed" route="r2" depart="148" departPosLat="random"/>
    <vehicle id="r7_105" type="mixed" route="r7" depart="148" departPosLat="random"/>
    <vehicle id="r2_106" type="mixed" route="r2" depart="149" departPosLat="random"/>
    <vehicle id="r2_107" type="mixed" route="r2" depart="149" departPosLat="random"/>
    <vehicle id="r6_108" type="mixed" route="r6" depart="149" departPosLat="random"/>
    <vehicle id="r2_109" type="mixed" route="r2" depart="149" departPosLat="random"/>
    <vehicle id="r6_110" type="mixed" route="r6" depart="151" departPosLat="random"/>
    <vehicle id="r1_111" type="mixed" route="r1" depart="151" departPosLat="random"/>
    <vehicle id="r1_112" type="mixed" route="r1" depart="152" departPosLat="random"/>
    <vehicle id="r11_113" type="mixed" route="r11" depart="152" departPosLat="random"/>
    <vehicle id="r9_114" type="mixed" route="r9" depart="153" departPosLat="random"/>
    <vehicle id="r6_115" type="mixed" route="r6" depart="154" departPosLat="random"/>
    <vehicle id="r11_116" type="mixed" route="r11" depart="155" departPosLat="random"/>
    <vehicle id="r7_117" type="mixed" route="r7" depart="155" departPosLat="random"/>
    <vehicle id="r3_118" type="mixed" route="r3" depart="155" departPosLat="random"/>
    <vehicle id="r3_119" type="mixed" route="r3" depart="155" departPosLat="random"/>
    <vehicle id="r3_120" type="mixed" route="r3" depart="156" departPosLat="random"/>
    <vehicle id="r7_121" type="mixed" route="r7" depart="157" departPosLat="random"/>
    <vehicle id="r1_122" type="mixed" route="r1" depart="157" departPosLat="random"/>
    <vehicle id="r4_123" type="mixed" route="r4" depart="157" departPosLat="random"/>
    <vehicle id="r1_124" type="mixed" route="r1" depart="160" departPosLat="random"/>
    <vehicle id="r0_125" type="mixed" route="r0" depart="160" departPosLat="random"/>
    <vehicle id="r11_126" type="mixed" route="r11" depart="160" departPosLat="random"/>
    <vehicle id="r2_127" type="mixed" route="r2" depart="162" departPosLat="random"/>
    <vehicle id="r10_128" type="mixed" route="r10" depart="163" departPosLat="random"/>
    <vehicle id="r0_129" type="mixed" route="r0" depart="163" departPosLat="random"/>
    <vehicle id="r2_130" type="mixed" route="r2" depart="164" departPosLat="random"/>
    <vehicle id="r4_131" type="mixed" route="r4" depart="164" departPosLat="random"/>
    <vehicle id="r11_132" type="mixed" route="r11" depart="164" departPosLat="random"/>
    <vehicle id="r6_133" type="mixed" route="r6" depart="165" departPosLat="random"/>
    <vehicle id="r5_134" type="mixed" route="r5" depart="166" departPosLat="random"/>
    <vehicle id="r4_135" type="mixed" route="r4" depart="168" departPosLat="random"/>
    <vehicle id="r11_136" type="mixed" route="r11" depart="168" departPosLat="random"/>
    <vehicle id="r5_137" type="mixed" route="r5" depart="168" departPosLat="random"/>
    <vehicle id="r10_138" type="mixed" route="r10" depart="169" departPosLat="random"/>
    <vehicle id="r11_139" type="mixed" route="r11" depart="171" departPosLat="random"/>
    <vehicle id="r7_140" type="mixed" route="r7" depart="171" departPosLat="random"/>
    <vehicle id="r9_141" type="mixed" route="r9" depart="171" departPosLat="random"/>
    <vehicle id="r10_142" type="mixed" route="r10" depart="172" departPosLat="random"/>
    <vehicle id="r1_143" type="mixed" route="r1" depart="172" departPosLat="random"/>
    <vehicle id="r11_144" type="mixed" route="r11" depart="173" departPosLat="random"/>
    <vehicle id="r7_145" type="mixed" route="r7" depart="174" departPosLat="random"/>
    <vehicle id="r0_146" type="mixed" route="r0" depart="174" departPosLat="random"/>
    <vehicle id="r4_147" type="mixed" route="r4" depart="175" departPosLat="random"/>
    <vehicle id="r11_148" type="mixed" route="r11" depart="175" departPosLat="random"/>
    <vehicle id="r0_149" type="mixed" route="r0" depart="176" departPosLat="random"/>
    <vehicle id="r8_150" type="mixed" route="r8" depart="176" departPosLat="random"/>
    <vehicle id="r11_151" type="mixed" route="r11" depart="176" departPosLat="random"/>
    <vehicle id="r4_152" type="mixed" route="r4" depart="177" departPosLat="random"/>
    <vehicle id="r2_153" type="mixed" route="r2" depart="177" departPosLat="random"/>
    <vehicle id="r11_154" type="mixed" route="r11" depart="177" departPosLat="random"/>
    <vehicle id="r10_155" type="mixed" route="r10" depart="178" departPosLat="random"/>
    <vehicle id="r0_156" type="mixed" route="r0" depart="178" departPosLat="random"/>
    <vehicle id="r1_157" type="mixed" route="r1" depart="179" departPosLat="random"/>
    <vehicle id="r9_158" type="mixed" route="r9" depart="179" departPosLat="random"/>
    <vehicle id="r10_159" type="mixed" route="r10" depart="179" departPosLat="random"/>
    <vehicle id="r10_160" type="mixed" route="r10" depart="179" departPosLat="random"/>
    <vehicle id="r5_161" type="mixed" route="r5" depart="180" departPosLat="random"/>
    <vehicle id="r0_162" type="mixed" route="r0" depart="182" departPosLat="random"/>
    <vehicle id="r7_163" type="mixed" route="r7" depart="182" departPosLat="random"/>
    <vehicle id="r3_164" type="mixed" route="r3" depart="184" departPosLat="random"/>
    <vehicle id="r9_165" type="mixed" route="r9" depart="185" departPosLat="random"/>
    <vehicle id="r10_166" type="mixed" route="r10" depart="185" departPosLat="random"/>
    <vehicle id="r10_167" type="mixed" route="r10" depart="185" departPosLat="random"/>
    <vehicle id="r9_168" type="mixed" route="r9" depart="186" departPosLat="random"/>
    <vehicle id="r1_169" type="mixed" route="r1" depart="186" departPosLat="random"/>
    <vehicle id="r4_170" type="mixed" route="r4" depart="186" departPosLat="random"/>
    <vehicle id="r11_171" type="mixed" route="r11" depart="186" departPosLat="random"/>
    <vehicle id="r6_172" type="mixed" route="r6" depart="187" departPosLat="random"/>
    <vehicle id="r9_173" type="mixed" route="r9" depart="190" departPosLat="random"/>
    <vehicle id="r10_174" type="mixed" route="r10" depart="190" departPosLat="random"/>
    <vehicle id="r9_175" type="mixed" route="r9" depart="191" departPosLat="random"/>
    <vehicle id="r10_176" type="mixed" route="r10" depart="192" departPosLat="random"/>
    <vehicle id="r2_177" type="mixed" route="r2" depart="192" departPosLat="random"/>
    <vehicle id="r7_178" type="mixed" route="r7" depart="192" departPosLat="random"/>
    <vehicle id="r0_179" type="mixed" route="r0" depart="193" departPosLat="random"/>
    <vehicle id="r10_180" type="mixed" route="r10" depart="194" departPosLat="random"/>
    <vehicle id="r5_181" type="mixed" route="r5" depart="194" departPosLat="random"/>
    <vehicle id="r6_182" type="mixed" route="r6" depart="194" departPosLat="random"/>
    <vehicle id="r6_183" type="mixed" route="r6" depart="194" departPosLat="random"/>
    <vehicle id="r9_184" type="mixed" route="r9" depart="194" departPosLat="random"/>
    <vehicle id="r3_185" type="mixed" route="r3" depart="194" departPosLat="random"/>
    <vehicle id="r8_186" type="mixed" route="r8" depart="195" departPosLat="random"/>
    <vehicle id="r9_187" type="mixed" route="r9" depart="195" departPosLat="random"/>
    <vehicle id="r0_188" type="mixed" route="r0" depart="196" departPosLat="random"/>
    <vehicle id="r10_189" type="mixed" route="r10" depart="198" departPosLat="random"/>
    <vehicle id="r5_190" type="mixed" route="r5" depart="199" departPosLat="random"/>
    <vehicle id="r4_191" type="mixed" route="r4" depart="201" departPosLat="random"/>
    <vehicle id="r6_192" type="mixed" route="r6" depart="202" departPosLat="random"/>
    <vehicle id="r8_193" type="mixed" route="r8" depart="202" departPosLat="random"/>
    <vehicle id="r4_194" type="mixed" route="r4" depart="203" departPosLat="random"/>
    <vehicle id="r4_195" type="mixed" route="r4" depart="203" departPosLat="random"/>
    <vehicle id="r6_196" type="mixed" route="r6" depart="203" departPosLat="random"/>
    <vehicle id="r2_197" type="mixed" route="r2" depart="204" departPosLat="random"/>
    <vehicle id="r1_198" type="mixed" route="r1" depart="204" departPosLat="random"/>
    <vehicle id="r7_199" type="mixed" route="r7" depart="204" departPosLat="random"/>
    <vehicle id="r0_200" type="mixed" route="r0" depart="205" departPosLat="random"/>
    <vehicle id="r6_201" type="mixed" route="r6" depart="205" departPosLat="random"/>
    <vehicle id="r9_202" type="mixed" route="r9" depart="206" departPosLat="random"/>
    <vehicle id="r10_203" type="mixed" route="r10" depart="206" departPosLat="random"/>
    <vehicle id="r3_204" type="mixed" route="r3" depart="206" departPosLat="random"/>
    <vehicle id="r9_205" type="mixed" route="r9" depart="206" departPosLat="random"/>
    <vehicle id="r5_206" type="mixed" route="r5" depart="208" departPosLat="random"/>
    <vehicle id="r1_207" type="mixed" route="r1" depart="209" departPosLat="random"/>
    <vehicle id="r6_208" type="mixed" route="r6" depart="209" departPosLat="random"/>
    <vehicle id="r11_209" type="mixed" route="r11" depart="209" departPosLat="random"/>
    <vehicle id="r1_210" type="mixed" route="r1" depart="210" departPosLat="random"/>
    <vehicle id="r9_211" type="mixed" route="r9" depart="210" departPosLat="random"/>
    <vehicle id="r5_212" type="mixed" route="r5" depart="211" departPosLat="random"/>
    <vehicle id="r1_213" type="mixed" route="r1" depart="211" departPosLat="random"/>
    <vehicle id="r10_214" type="mixed" route="r10" depart="211" departPosLat="random"/>
    <vehicle id="r6_215" type="mixed" route="r6" depart="212" departPosLat="random"/>
    <vehicle id="r5_216" type="mixed" route="r5" depart="213" departPosLat="random"/>
    <vehicle id="r11_217" type="mixed" route="r11" depart="214" departPosLat="random"/>
    <vehicle id="r7_218" type="mixed" route="r7" depart="215" departPosLat="random"/>
    <vehicle id="r2_219" type="mixed" route="r2" depart="215" departPosLat="random"/>
    <vehicle id="r11_220" type="mixed" route="r11" depart="216" departPosLat="random"/>
    <vehicle id="r7_221" type="mixed" route="r7" depart="216" departPosLat="random"/>
    <vehicle id="r6_222" type="mixed" route="r6" depart="217" departPosLat="random"/>
    <vehicle id="r9_223" type="mixed" route="r9" depart="217" departPosLat="random"/>
    <vehicle id="r6_224" type="mixed" route="r6" depart="218" departPosLat="random"/>
    <vehicle id="r8_225" type="mixed" route="r8" depart="218" departPosLat="random"/>
    <vehicle id="r6_226" type="mixed" route="r6" depart="218" departPosLat="random"/>
    <vehicle id="r4_227" type="mixed" route="r4" depart="219" departPosLat="random"/>
    <vehicle id="r7_228" type="mixed" route="r7" depart="219" departPosLat="random"/>
    <vehicle id="r4_229" type="mixed" route="r4" depart="220" departPosLat="random"/>
    <vehicle id="r4_230" type="mixed" route="r4" depart="220" departPosLat="random"/>
    <vehicle id="r10_231" type="mixed" route="r10" depart="220" departPosLat="random"/>
    <vehicle id="r6_232" type="mixed" route="r6" depart="221" departPosLat="random"/>
    <vehicle id="r9_233" type="mixed" route="r9" depart="221" departPosLat="random"/>
    <vehicle id="r2_234" type="mixed" route="r2" depart="221" departPosLat="random"/>
    <vehicle id="r4_235" type="mixed" route="r4" depart="221" departPosLat="random"/>
    <vehicle id="r8_236" type="mixed" route="r8" depart="222" departPosLat="random"/>
    <vehicle id="r7_237" type="mixed" route="r7" depart="223" departPosLat="random"/>
    <vehicle id="r2_238" type="mixed" route="r2" depart="224" departPosLat="random"/>
    <vehicle id="r6_239" type="mixed" route="r6" depart="224" departPosLat="random"/>
    <vehicle id="r10_240" type="mixed" route="r10" depart="224" departPosLat="random"/>
    <vehicle id="r11_241" type="mixed" route="r11" depart="224" departPosLat="random"/>
    <vehicle id="r3_242" type="mixed" route="r3" depart="224" departPosLat="random"/>
    <vehicle id="r2_243" type="mixed" route="r2" depart="224" departPosLat="random"/>
    <vehicle id="r11_244" type="mixed" route="r11" depart="225" departPosLat="random"/>
    <vehicle id="r0_245" type="mixed" route="r0" depart="226" departPosLat="random"/>
    <vehicle id="r4_246" type="mixed" route="r4" depart="226" departPosLat="random"/>
    <vehicle id="r3_247" type="mixed" route="r3" depart="226" departPosLat="random"/>
    <vehicle id="r11_248" type="mixed" route="r11" depart="227" departPosLat="random"/>
    <vehicle id="r6_249" type="mixed" route="r6" depart="227" departPosLat="random"/>
    <vehicle id="r8_250" type="mixed" route="r8" depart="227" departPosLat="random"/>
    <vehicle id="r2_251" type="mixed" route="r2" depart="227" departPosLat="random"/>
    <vehicle id="r3_252" type="mixed" route="r3" depart="228" departPosLat="random"/>
    <vehicle id="r7_253" type="mixed" route="r7" depart="228" departPosLat="random"/>
    <vehicle id="r0_254" type="mixed" route="r0" depart="230" departPosLat="random"/>
    <vehicle id="r5_255" type="mixed" route="r5" depart="231" departPosLat="random"/>
    <vehicle id="r0_256" type="mixed" route="r0" depart="233" departPosLat="random"/>
    <vehicle id="r8_257" type="mixed" route="r8" depart="233" departPosLat="random"/>
    <vehicle id="r3_258" type="mixed" route="r3" depart="234" departPosLat="random"/>
    <vehicle id="r4_259" type="mixed" route="r4" depart="235" departPosLat="random"/>
    <vehicle id="r6_260" type="mixed" route="r6" depart="236" departPosLat="random"/>
    <vehicle id="r7_261" type="mixed" route="r7" depart="237" departPosLat="random"/>
    <vehicle id="r3_262" type="mixed" route="r3" depart="239" departPosLat="random"/>
    <vehicle id="r6_263" type="mixed" route="r6" depart="240" departPosLat="random"/>
    <vehicle id="r6_264" type="mixed" route="r6" depart="240" departPosLat="random"/>
    <vehicle id="r2_265" type="mixed" route="r2" depart="240" departPosLat="random"/>
    <vehicle id="r4_266" type="mixed" route="r4" depart="241" departPosLat="random"/>
    <vehicle id="r11_267" type="mixed" route="r11" depart="242" departPosLat="random"/>
    <vehicle id="r10_268" type="mixed" route="r10" depart="243" departPosLat="random"/>
    <vehicle id="r11_269" type="mixed" route="r11" depart="244" departPosLat="random"/>
    <vehicle id="r6_270" type="mixed" route="r6" depart="244" departPosLat="random"/>
    <vehicle id="r4_271" type="mixed" route="r4" depart="245" departPosLat="random"/>
    <vehicle id="r2_272" type="mixed" route="r2" depart="246" departPosLat="random"/>
    <vehicle id="r8_273" type="mixed" route="r8" depart="247" departPosLat="random"/>
    <vehicle id="r1_274" type="mixed" route="r1" depart="248" departPosLat="random"/>
    <vehicle id="r11_275" type="mixed" route="r11" depart="249" departPosLat="random"/>
    <vehicle id="r5_276" type="mixed" route="r5" depart="250" departPosLat="random"/>
    <vehicle id="r5_277" type="mixed" route="r5" depart="250" departPosLat="random"/>
    <vehicle id="r6_278" type="mixed" route="r6" depart="250" departPosLat="random"/>
    <vehicle id="r10_279" type="mixed" route="r10" depart="251" departPosLat="random"/>
    <vehicle id="r3_280" type="mixed" route="r3" depart="252" departPosLat="random"/>
    <vehicle id="r2_281" type="mixed" route="r2" depart="252" departPosLat="random"/>
    <vehicle id="r2_282" type="mixed" route="r2" depart="252" departPosLat="random"/>
    <vehicle id="r7_283" type="mixed" route="r7" depart="252" departPosLat="random"/>
    <vehicle id="r8_284" type="mixed" route="r8" depart="252" departPosLat="random"/>
    <vehicle id="r0_285" type="mixed" route="r0" depart="253" departPosLat="random"/>
    <vehicle id="r11_286" type="mixed" route="r11" depart="254" departPosLat="random"/>
    <vehicle id="r2_287" type="mixed" route="r2" depart="255" departPosLat="random"/>
    <vehicle id="r10_288" type="mixed" route="r10" depart="255" departPosLat="random"/>
    <vehicle id="r6_289" type="mixed" route="r6" depart="255" departPosLat="random"/>
    <vehicle id="r0_290" type="mixed" route="r0" depart="256" departPosLat="random"/>
    <vehicle id="r0_291" type="mixed" route="r0" depart="256" departPosLat="random"/>
    <vehicle id="r3_292" type="mixed" route="r3" depart="256" departPosLat="random"/>
    <vehicle id="r8_293" type="mixed" route="r8" depart="257" departPosLat="random"/>
    <vehicle id="r10_294" type="mixed" route="r10" depart="257" departPosLat="random"/>
    <vehicle id="r6_295" type="mixed" route="r6" depart="257" departPosLat="random"/>
    <vehicle id="r1_296" type="mixed" route="r1" depart="258" departPosLat="random"/>
    <vehicle id="r8_297" type="mixed" route="r8" depart="260" departPosLat="random"/>
    <vehicle id="r4_298" type="mixed" route="r4" depart="260" departPosLat="random"/>
    <vehicle id="r4_299" type="mixed" route="r4" depart="260" departPosLat="random"/>
    <vehicle id="r8_300" type="mixed" route="r8" depart="261" departPosLat="random"/>
    <vehicle id="r1_301" type="mixed" route="r1" depart="261" departPosLat="random"/>
    <vehicle id="r4_302" type="mixed" route="r4" depart="262" departPosLat="random"/>
    <vehicle id="r9_303" type="mixed" route="r9" depart="262" departPosLat="random"/>
    <vehicle id="r2_304" type="mixed" route="r2" depart="263" departPosLat="random"/>
    <vehicle id="r11_305" type="mixed" route="r11" depart="263" departPosLat="random"/>
    <vehicle id="r2_306" type="mixed" route="r2" depart="263" departPosLat="random"/>
    <vehicle id="r11_307" type="mixed" route="r11" depart="263" departPosLat="random"/>
    <vehicle id="r3_308" type="mixed" route="r3" depart="264" departPosLat="random"/>
    <vehicle id="r11_309" type="mixed" route="r11" depart="264" departPosLat="random"/>
    <vehicle id="r0_310" type="mixed" route="r0" depart="265" departPosLat="random"/>
    <vehicle id="r9_311" type="mixed" route="r9" depart="266" departPosLat="random"/>
    <vehicle id="r6_312" type="mixed" route="r6" depart="266" departPosLat="random"/>
    <vehicle id="r5_313" type="mixed" route="r5" depart="267" departPosLat="random"/>
    <vehicle id="r4_314" type="mixed" route="r4" depart="267" departPosLat="random"/>
    <vehicle id="r5_315" type="mixed" route="r5" depart="267" departPosLat="random"/>
    <vehicle id="r8_316" type="mixed" route="r8" depart="268" departPosLat="random"/>
    <vehicle id="r0_317" type="mixed" route="r0" depart="268" departPosLat="random"/>
    <vehicle id="r3_318" type="mixed" route="r3" depart="268" departPosLat="random"/>
    <vehicle id="r5_319" type="mixed" route="r5" depart="269" departPosLat="random"/>
    <vehicle id="r1_320" type="mixed" route="r1" depart="269" departPosLat="random"/>
    <vehicle id="r10_321" type="mixed" route="r10" depart="270" departPosLat="random"/>
    <vehicle id="r8_322" type="mixed" route="r8" depart="271" departPosLat="random"/>
    <vehicle id="r2_323" type="mixed" route="r2" depart="273" departPosLat="random"/>
    <vehicle id="r1_324" type="mixed" route="r1" depart="273" departPosLat="random"/>
    <vehicle id="r4_325" type="mixed" route="r4" depart="273" departPosLat="random"/>
    <vehicle id="r0_326" type="mixed" route="r0" depart="273" departPosLat="random"/>
    <vehicle id="r11_327" type="mixed" route="r11" depart="274" departPosLat="random"/>
    <vehicle id="r10_328" type="mixed" route="r10" depart="274" departPosLat="random"/>
    <vehicle id="r2_329" type="mixed" route="r2" depart="274" departPosLat="random"/>
    <vehicle id="r4_330" type="mixed" route="r4" depart="274" departPosLat="random"/>
    <vehicle id="r9_331" type="mixed" route="r9" depart="276" departPosLat="random"/>
    <vehicle id="r1_332" type="mixed" route="r1" depart="278" departPosLat="random"/>
    <vehicle id="r3_333" type="mixed" route="r3" depart="278" departPosLat="random"/>
    <vehicle id="r9_334" type="mixed" route="r9" depart="279" departPosLat="random"/>