<routes>
    <vTypeDistribution id="mixed">
        <vType id="car" vClass="passenger" speedDev="0.2" latAlignment="compact" probability="0.6"/>
        <vType id="moped" vClass="moped" speedDev="0.4" latAlignment="compact" probability="0.4"/>
    </vTypeDistribution>
    <route id="r0" edges="51o 1i 2o 52i"/>
    <route id="r1" edges="51o 1i 4o 54i"/>
    <route id="r2" edges="51o 1i 3o 53i"/>
    <route id="r3" edges="54o 4i 3o 53i"/>
    <route id="r4" edges="54o 4i 1o 51i"/>
    <route id="r5" edges="54o 4i 2o 52i"/>
    <route id="r6" edges="52o 2i 1o 51i"/>
    <route id="r7" edges="52o 2i 4o 54i"/>
    <route id="r8" edges="52o 2i 3o 53i"/>
    <route id="r9" edges="53o 3i 4o 54i"/>
    <route id="r10" edges="53o 3i 1o 51i"/>
    <route id="r11" edges="53o 3i 2o 52i"/>
    <vehicle id="r6_0" type="mixed" route="r6" depart="34" departPosLat="random"/>
    <vehicle id="r10_1" type="mixed" route="r10" depart="36" departPosLat="random"/>
    <vehicle id="r6_2" type="mixed" route="r6" depart="37" departPosLat="random"/>
    <vehicle id="r1_3" type="mixed" route="r1" depart="40" departPosLat="random"/>
    <vehicle id="r1_4" type="mixed" route="r1" depart="42" departPosLat="random"/>
    <vehicle id="r8_5" type="mixed" route="r8" depart="48" departPosLat="random"/>
    <vehicle id="r0_6" type="mixed" route="r0" depart="52" departPosLat="random"/>
    <vehicle id="r5_7" type="mixed" route="r5" depart="53" departPosLat="random"/>
    <vehicle id="r4_8" type="mixed" route="r4" depart="53" departPosLat="random"/>
    <vehicle id="r2_9" type="mixed" route="r2" depart="55" departPosLat="random"/>
    <vehicle id="r7_10" type="mixed" route="r7" depart="57" departPosLat="random"/>
    <vehicle id="r3_11" type="mixed" route="r3" depart="57" departPosLat="random"/>
    <vehicle id="r1_12" type="mixed" route="r1" depart="60" departPosLat="random"/>
    <vehicle id="r0_13" type="mixed" route="r0" depart="61" departPosLat="random"/>
    <vehicle id="r10_14" type="mixed" route="r10" depart="62" departPosLat="random"/>
    <vehicle id="r9_15" type="mixed" route="r9" depart="65" departPosLat="random"/>
    <vehicle id="r3_16" type="mixed" route="r3" depart="67" departPosLat="random"/>
    <vehicle id="r9_17" type="mixed" route="r9" depart="68" departPosLat="random"/>
    <vehicle id="r7_18" type="mixed" route="r7" depart="68" departPosLat="random"/>
    <vehicle id="r5_19" type="mixed" route="r5" depart="68" departPosLat="random"/>
    <vehicle id="r7_20" type="mixed" route="r7" depart="71" departPosLat="random"/>
    <vehicle id="r11_21" type="mixed" route="r11" depart="71" departPosLat="random"/>
    <vehicle id="r2_22" type="mixed" route="r2" depart="72" departPosLat="random"/>
    <vehicle id="r4_23" type="mixed" route="r4" depart="73" departPosLat="random"/>
    <vehicle id="r3_24" type="mixed" route="r3" depart="75" departPosLat="random"/>
    <vehicle id="r2_25" type="mixed" route="r2" depart="77" departPosLat="random"/>
    <vehicle id="r10_26" type="mixed" route="r10" depart="78" departPosLat="random"/>
    <vehicle id="r0_27" type="mixed" route="r0" depart="79" departPosLat="random"/>
    <vehicle id="r2_28" type="mixed" route="r2" depart="80" departPosLat="random"/>
    <vehicle id="r10_29" type="mixed" route="r10" depart="80" departPosLat="random"/>
    <vehicle id="r9_30" type="mixed" route="r9" depart="80" departPosLat="random"/>
    <vehicle id="r4_31" type="mixed" route="r4" depart="82" departPosLat="random"/>
    <vehicle id="r3_32" type="mixed" route="r3" depart="82" departPosLat="random"/>
    <vehicle id="r1_33" type="mixed" route="r1" depart="82" departPosLat="random"/>
    <vehicle id="r5_34" type="mixed" route="r5" depart="83" departPosLat="random"/>
    <vehicle id="r5_35" type="mixed" route="r5" depart="85" departPosLat="random"/>
    <vehicle id="r1_36" type="mixed" route="r1" depart="86" departPosLat="random"/>
    <vehicle id="r5_37" type="mixed" route="r5" depart="88" departPosLat="random"/>
    <vehicle id="r5_38" type="mixed" route="r5" depart="89" departPosLat="random"/>
    <vehicle id="r4_39" type="mixed" route="r4" depart="89" departPosLat="random"/>
    <vehicle id="r9_40" type="mixed" route="r9" depart="92" departPosLat="random"/>
    <vehicle id="r6_41" type="mixed" route="r6" depart="93" departPosLat="random"/>
    <vehicle id="r11_42" type="mixed" route="r11" depart="94" departPosLat="random"/>
    <vehicle id="r6_43" type="mixed" route="r6" depart="96" departPosLat="random"/>
    <vehicle id="r10_44" type="mixed" route="r10" depart="96" departPosLat="random"/>
    <vehicle id="r1_45" type="mixed" route="r1" depart="97" departPosLat="random"/>
    <vehicle id="r5_46" type="mixed" route="r5" depart="97" departPosLat="random"/>
    <vehicle id="r5_47" type="mixed" route="r5" depart="97" departPosLat="random"/>
    <vehicle id="r0_48" type="mixed" route="r0" depart="98" departPosLat="random"/>
    <vehicle id="r2_49" type="mixed" route="r2" depart="100" departPosLat="random"/>
    <vehicle id="r6_50" type="mixed" route="r6" depart="100" departPosLat="random"/>
    <vehicle id="r6_51" type="mixed" route="r6" depart="102" departPosLat="random"/>
    <vehicle id="r5_52" type="mixed" route="r5" depart="102" departPosLat="random"/>
    <vehicle id="r0_53" type="mixed" route="r0" depart="102" departPosLat="random"/>
    <vehicle id="r9_54" type="mixed" route="r9" depart="104" departPosLat="random"/>
    <vehicle id="r0_55" type="mixed" route="r0" depart="105" departPosLat="random"/>
    <vehicle id="r5_56" type="mixed" route="r5" depart="108" departPosLat="random"/>
    <vehicle id="r4_57" type="mixed" route="r4" depart="108" departPosLat="random"/>
    <vehicle id="r4_58" type="mixed" route="r4" depart="108" departPosLat="random"/>
    <vehicle id="r5_59" type="mixed" route="r5" depart="108" departPosLat="random"/>
    <vehicle id="r1_60" type="mixed" route="r1" depart="108" departPosLat="random"/>
    <vehicle id="r9_61" type="mixed" route="r9" depart="109" departPosLat="random"/>
    <vehicle id="r8_62" type="mixed" route="r8" depart="109" departPosLat="random"/>
    <vehicle id="r3_63" type="mixed" route="r3" depart="110" departPosLat="random"/>
    <vehicle id="r1_64" type="mixed" route="r1" depart="115" departPosLat="random"/>
    <vehicle id="r11_65" type="mixed" route="r11" depart="115" departPosLat="random"/>
    <vehicle id="r2_66" type="mixed" route="r2" depart="115" departPosLat="random"/>
    <vehicle id="r1_67" type="mixed" route="r1" depart="115" departPosLat="random"/>
    <vehicle id="r1_68" type="mixed" route="r1" depart="119" departPosLat="random"/>
    <vehicle id="r7_69" type="mixed" route="r7" depart="120" departPosLat="random"/>
    <vehicle id="r4_70" type="mixed" route="r4" depart="120" departPosLat="random"/>
    <vehicle id="r7_71" type="mixed" route="r7" depart="122" departPosLat="random"/>
    <vehicle id="r7_72" type="mixed" route="r7" depart="122" departPosLat="random"/>
    <vehicle id="r8_73" type="mixed" route="r8" depart="122" departPosLat="random"/>
    <vehicle id="r10_74" type="mixed" route="r10" depart="126" departPosLat="random"/>
    <vehicle id="r0_75" type="mixed" route="r0" depart="128" departPosLat="random"/>
    <vehicle id="r2_76" type="mixed" route="r2" depart="128" departPosLat="random"/>
    <vehicle id="r5_77" type="mixed" route="r5" depart="130" departPosLat="random"/>
    <vehicle id="r4_78" type="mixed" route="r4" depart="130" departPosLat="random"/>
    <vehicle id="r10_79" type="mixed" route="r10" depart="130" departPosLat="random"/>
    <vehicle id="r0_80" type="mixed" route="r0" depart="131" departPosLat="random"/>
    <vehicle id="r5_81" type="mixed" route="r5" depart="132" departPosLat="random"/>
    <vehicle id="r6_82" type="mixed" route="r6" depart="132" departPosLat="random"/>
    <vehicle id="r5_83" type="mixed" route="r5" depart="133" departPosLat="random"/>
    <vehicle id="r2_84" type="mixed" route="r2" depart="134" departPosLat="random"/>
    <vehicle id="r11_85" type="mixed" route="r11" depart="135" departPosLat="random"/>
    <vehicle id="r10_86" type="mixed" route="r10" depart="136" departPosLat="random"/>
    <vehicle id="r1_87" type="mixed" route="r1" depart="137" departPosLat="random"/>
    <vehicle id="r3_88" type="mixed" route="r3" depart="138" departPosLat="random"/>
    <vehicle id="r2_89" type="mixed" route="r2" depart="139" departPosLat="random"/>
    <vehicle id="r10_90" type="mixed" route="r10" depart="139" departPosLat="random"/>
    <vehicle id="r5_91" type="mixed" route="r5" depart="140" departPosLat="random"/>
    <vehicle id="r7_92" type="mixed" route="r7" depart="140" departPosLat="random"/>
    <vehicle id="r1_93" type="mixed" route="r1" depart="141" departPosLat="random"/>
    <vehicle id="r4_94" type="mixed" route="r4" depart="141" departPosLat="random"/>
    <vehicle id="r10_95" type="mixed" route="r10" depart="142" departPosLat="random"/>
    <vehicle id="r2_96" type="mixed" route="r2" depart="142" departPosLat="random"/>
    <vehicle id="r5_97" type="mixed" route="r5" depart="143" departPosLat="random"/>
    <vehicle id="r6_98" type="mixed" route="r6" depart="145" departPosLat="random"/>
    <vehicle id="r1_99" type="mixed" route="r1" depart="145" departPosLat="random"/>
    <vehicle id="r4_100" type="mixed" route="r4" depart="146" departPosLat="random"/>
    <vehicle id="r7_101" type="mixed" route="r7" depart="146" departPosLat="random"/>
    <vehicle id="r1_102" type="mixed" route="r1" depart="147" departPosLat="random"/>
    <vehicle id="r7_103" type="mixed" route="r7" depart="148" departPosLat="random"/>
    <vehicle id="r5_104" type="mixed" route="r5" depart="148" departPosLat="random"/>
    <vehicle id="r0_105" type="mixed" route="r0" depart="148" departPosLat="random"/>
    <vehicle id="r0_106" type="mixed" route="r0" depart="149" departPosLat="random"/>
    <vehicle id="r3_107" type="mixed" route="r3" depart="149" departPosLat="random"/>
    <vehicle id="r2_108" type="mixed" route="r2" depart="149" departPosLat="random"/>
    <vehicle id="r4_109" type="mixed" route="r4" depart="149" departPosLat="random"/>
    <vehicle id="r2_110" type="mixed" route="r2" depart="151" departPosLat="random"/>
    <vehicle id="r8_111" type="mixed" route="r8" depart="151" departPosLat="random"/>
    <vehicle id="r1_112" type="mixed" route="r1" depart="152" departPosLat="random"/>
    <vehicle id="r8_113" type="mixed" route="r8" depart="152" departPosLat="random"/>
    <vehicle id="r1_114" type="mixed" route="r1" depart="153" departPosLat="random"/>
    <vehicle id="r3_115" type="mixed" route="r3" depart="154" departPosLat="random"/>
    <vehicle id="r10_116" type="mixed" route="r10" depart="155" departPosLat="random"/>
    <vehicle id="r11_117" type="mixed" route="r11" depart="155" departPosLat="random"/>
    <vehicle id="r4_118" type="mixed" route="r4" depart="155" departPosLat="random"/>
    <vehicle id="r1_119" type="mixed" route="r1" depart="155" departPosLat="random"/>
    <vehicle id="r0_120" type="mixed" route="r0" depart="156" departPosLat="random"/>
    <vehicle id="r11_121" type="mixed" route="r11" depart="157" departPosLat="random"/>
    <vehicle id="r4_122" type="mixed" route="r4" depart="157" departPosLat="random"/>
    <vehicle id="r3_123" type="mixed" route="r3" depart="157" departPosLat="random"/>
    <vehicle id="r6_124" type="mixed" route="r6" depart="160" departPosLat="random"/>
    <vehicle id="r10_125" type="mixed" route="r10" depart="160" departPosLat="random"/>
    <vehicle id="r1_126" type="mixed" route="r1" depart="160" departPosLat="random"/>
    <vehicle id="r10_127" type="mixed" route="r10" depart="162" departPosLat="random"/>
    <vehicle id="r4_128" type="mixed" route="r4" depart="163" departPosLat="random"/>
    <vehicle id="r1_129" type="mixed" route="r1" depart="163" departPosLat="random"/>
    <vehicle id="r0_130" type="mixed" route="r0" depart="164" departPosLat="random"/>
    <vehicle id="r4_131" type="mixed" route="r4" depart="164" departPosLat="random"/>
    <vehicle id="r6_132" type="mixed" route="r6" depart="164" departPosLat="random"/>
    <vehicle id="r9_133" type="mixed" route="r9" depart="165" departPosLat="random"/>
    <vehicle id="r1_134" type="mixed" route="r1" depart="166" departPosLat="random"/>
    <vehicle id="r7_135" type="mixed" route="r7" depart="168" departPosLat="random"/>
    <vehicle id="r9_136" type="mixed" route="r9" depart="168" departPosLat="random"/>
    <vehicle id="r9_137" type="mixed" route="r9" depart="168" departPosLat="random"/>
    <vehicle id="r9_138" type="mixed" route="r9" depart="169" departPosLat="random"/>
    <vehicle id="r4_139" type="mixed" route="r4" depart="171" departPosLat="random"/>
    <vehicle id="r3_140" type="mixed" route="r3" depart="171" departPosLat="random"/>
    <vehicle id="r2_141" type="mixed" route="r2" depart="171" departPosLat="random"/>
    <vehicle id="r4_142" type="mixed" route="r4" depart="172" departPosLat="random"/>
    <vehicle id="r9_143" type="mixed" route="r9" depart="172" departPosLat="random"/>
    <vehicle id="r10_144" type="mixed" route="r10" depart="173" departPosLat="random"/>
    <vehicle id="r11_145" type="mixed" route="r11" depart="174" departPosLat="random"/>
    <vehicle id="r11_146" type="mixed" route="r11" depart="174" departPosLat="random"/>
    <vehicle id="r10_147" type="mixed" route="r10" depart="175" departPosLat="random"/>
    <vehicle id="r4_148" type="mixed" route="r4" depart="175" departPosLat="random"/>
    <vehicle id="r3_149" type="mixed" route="r3" depart="176" departPosLat="random"/>
    <vehicle id="r0_150" type="mixed" route="r0" depart="176" departPosLat="random"/>
    <vehicle id="r4_151" type="mixed" route="r4" depart="176" departPosLat="random"/>
    <vehicle id="r1_152" type="mixed" route="r1" depart="177" departPosLat="random"/>
    <vehicle id="r3_153" type="mixed" route="r3" depart="177" departPosLat="random"/>
    <vehicle id="r0_154" type="mixed" route="r0" depart="177" departPosLat="random"/>
    <vehicle id="r0_155" type="mixed" route="r0" depart="178" departPosLat="random"/>
    <vehicle id="r5_156" type="mixed" route="r5" depart="178" departPosLat="random"/>
    <vehicle id="r7_157" type="mixed" route="r7" depart="179" departPosLat="random"/>
    <vehicle id="r9_158" type="mixed" route="r9" depart="179" departPosLat="random"/>
    <vehicle id="r1_159" type="mixed" route="r1" depart="179" departPosLat="random"/>
    <vehicle id="r9_160" type="mixed" route="r9" depart="179" departPosLat="random"/>
    <vehicle id="r6_161" type="mixed" route="r6" depart="180" departPosLat="random"/>
    <vehicle id="r5_162" type="mixed" route="r5" depart="182" departPosLat="random"/>
    <vehicle id="r5_163" type="mixed" route="r5" depart="182" departPosLat="random"/>
    <vehicle id="r6_164" type="mixed" route="r6" depart="184" departPosLat="random"/>
    <vehicle id="r4_165" type="mixed" route="r4" depart="185" departPosLat="random"/>
    <vehicle id="r0_166" type="mixed" route="r0" depart="185" departPosLat="random"/>
    <vehicle id="r1_167" type="mixed" route="r1" depart="185" departPosLat="random"/>
    <vehicle id="r7_168" type="mixed" route="r7" depart="186" departPosLat="random"/>
    <vehicle id="r3_169" type="mixed" route="r3" depart="186" departPosLat="random"/>
    <vehicle id="r9_170" type="mixed" route="r9" depart="186" departPosLat="random"/>
    <vehicle id="r7_171" type="mixed" route="r7" depart="186" departPosLat="random"/>
    <vehicle id="r11_172" type="mixed" route="r11" depart="187" departPosLat="random"/>
    <vehicle id="r1_173" type="mixed" route="r1" depart="190" departPosLat="random"/>
    <vehicle id="r6_174" type="mixed" route="r6" depart="190" departPosLat="random"/>
    <vehicle id="r7_175" type="mixed" route="r7" depart="191" departPosLat="random"/>
    <vehicle id="r2_176" type="mixed" route="r2" depart="192" departPosLat="random"/>
    <vehicle id="r2_177" type="mixed" route="r2" depart="192" departPosLat="random"/>
    <vehicle id="r3_178" type="mixed" route="r3" depart="192" departPosLat="random"/>
    <vehicle id="r4_179" type="mixed" route="r4" depart="193" departPosLat="random"/>
    <vehicle id="r11_180" type="mixed" route="r11" depart="194" departPosLat="random"/>
    <vehicle id="r10_181" type="mixed" route="r10" depart="194" departPosLat="random"/>
    <vehicle id="r1_182" type="mixed" route="r1" depart="194" departPosLat="random"/>
    <vehicle id="r9_183" type="mixed" route="r9" depart="194" departPosLat="random"/>
    <vehicle id="r3_184" type="mixed" route="r3" depart="194" departPosLat="random"/>
    <vehicle id="r3_185" type="mixed" route="r3" depart="194" departPosLat="random"/>
    <vehicle id="r2_186" type="mixed" route="r2" depart="195" departPosLat="random"/>
    <vehicle id="r6_187" type="mixed" route="r6" depart="195" departPosLat="random"/>
    <vehicle id="r11_188" type="mixed" route="r11" depart="196" departPosLat="random"/>
    <vehicle id="r8_189" type="mixed" route="r8" depart="198" departPosLat="random"/>
    <vehicle id="r0_190" type="mixed" route="r0" depart="199" departPosLat="random"/>
    <vehicle id="r0_191" type="mixed" route="r0" depart="201" departPosLat="random"/>
    <vehicle id="r2_192" type="mixed" route="r2" depart="202" departPosLat="random"/>
    <vehicle id="r2_193" type="mixed" route="r2" depart="202" departPosLat="random"/>
    <vehicle id="r2_194" type="mixed" route="r2" depart="203" departPosLat="random"/>
    <vehicle id="r5_195" type="mixed" route="r5" depart="203" departPosLat="random"/>
    <vehicle id="r10_196" type="mixed" route="r10" depart="203" departPosLat="random"/>
    <vehicle id="r9_197" type="mixed" route="r9" depart="204" departPosLat="random"/>
    <vehicle id="r3_198" type="mixed" route="r3" depart="204" departPosLat="random"/>
    <vehicle id="r9_199" type="mixed" route="r9" depart="204" departPosLat="random"/>
    <vehicle id="r1_200" type="mixed" route="r1" depart="205" departPosLat="random"/>
    <vehicle id="r11_201" type="mixed" route="r11" depart="205" departPosLat="random"/>
    <vehicle id="r9_202" type="mixed" route="r9" depart="206" departPosLat="random"/>
    <vehicle id="r4_203" type="mixed" route="r4" depart="206" departPosLat="random"/>
    <vehicle id="r1_204" type="mixed" route="r1" depart="206" departPosLat="random"/>
    <vehicle id="r10_205" type="mixed" route="r10" depart="206" departPosLat="random"/>
    <vehicle id="r1_206" type="mixed" route="r1" depart="208" departPosLat="random"/>
    <vehicle id="r9_207" type="mixed" route="r9" depart="209" departPosLat="random"/>
    <vehicle id="r4_208" type="mixed" route="r4" depart="209" departPosLat="random"/>
    <vehicle id="r8_209" type="mixed" route="r8" depart="209" departPosLat="random"/>
    <vehicle id="r5_210" type="mixed" route="r5" depart="210" departPosLat="random"/>
    <vehicle id="r1_211" type="mixed" route="r1" depart="210" departPosLat="random"/>
    <vehicle id="r9_212" type="mixed" route="r9" depart="211" departPosLat="random"/>
    <vehicle id="r1_213" type="mixed" route="r1" depart="211" departPosLat="random"/>
    <vehicle id="r4_214" type="mixed" route="r4" depart="211" departPosLat="random"/>
    <vehicle id="r7_215" type="mixed" route="r7" depart="212" departPosLat="random"/>
    <vehicle id="r6_216" type="mixed" route="r6" depart="213" departPosLat="random"/>
    <vehicle id="r9_217" type="mixed" route="r9" depart="214" departPosLat="random"/>
    <vehicle id="r6_218" type="mixed" route="r6" depart="215" departPosLat="random"/>
    <vehicle id="r10_219" type="mixed" route="r10" depart="215" departPosLat="random"/>
    <vehicle id="r1_220" type="mixed" route="r1" depart="216" departPosLat="random"/>
    <vehicle id="r5_221" type="mixed" route="r5" depart="216" departPosLat="random"/>
    <vehicle id="r7_222" type="mixed" route="r7" depart="217" departPosLat="random"/>
    <vehicle id="r5_223" type="mixed" route="r5" depart="217" departPosLat="random"/>
    <vehicle id="r6_224" type="mixed" route="r6" depart="218" departPosLat="random"/>
    <vehicle id="r0_225" type="mixed" route="r0" depart="218" departPosLat="random"/>
    <vehicle id="r2_226" type="mixed" route="r2" depart="218" departPosLat="random"/>
    <vehicle id="r11_227" type="mixed" route="r11" depart="219" departPosLat="random"/>
    <vehicle id="r7_228" type="mixed" route="r7" depart="219" departPosLat="random"/>
    <vehicle id="r9_229" type="mixed" route="r9" depart="220" departPosLat="random"/>
    <vehicle id="r8_230" type="mixed" route="r8" depart="220" departPosLat="random"/>
    <vehicle id="r7_231" type="mixed" route="r7" depart="220" departPosLat="random"/>
    <vehicle id="r2_232" type="mixed" route="r2" depart="221" departPosLat="random"/>
    <vehicle id="r0_233" type="mixed" route="r0" depart="221" departPosLat="random"/>
    <vehicle id="r3_234" type="mixed" route="r3" depart="221" departPosLat="random"/>
    <vehicle id="r4_235" type="mixed" route="r4" depart="221" departPosLat="random"/>
    <vehicle id="r5_236" type="mixed" route="r5" depart="222" departPosLat="random"/>
    <vehicle id="r3_237" type="mixed" route="r3" depart="223" departPosLat="random"/>
    <vehicle id="r10_238" type="mixed" route="r10" depart="224" departPosLat="random"/>
    <vehicle id="r2_239" type="mixed" route="r2" depart="224" departPosLat="random"/>
    <vehicle id="r6_240" type="mixed" route="r6" depart="224" departPosLat="random"/>
    <vehicle id="r4_241" type="mixed" route="r4" depart="224" departPosLat="random"/>
    <vehicle id="r5_242" type="mixed" route="r5" depart="224" departPosLat="random"/>
    <vehicle id="r0_243" type="mixed" route="r0" depart="224" departPosLat="random"/>
    <vehicle id="r2_244" type="mixed" route="r2" depart="225" departPosLat="random"/>
    <vehicle id="r0_245" type="mixed" route="r0" depart="226" departPosLat="random"/>
    <vehicle id="r9_246" type="mixed" route="r9" depart="226" departPosLat="random"/>
    <vehicle id="r9_247" type="mixed" route="r9" depart="226" departPosLat="random"/>
    <vehicle id="r6_248" type="mixed" route="r6" depart="227" departPosLat="random"/>
    <vehicle id="r3_249" type="mixed" route="r3" depart="227" departPosLat="random"/>
    <vehicle id="r0_250" type="mixed" route="r0" depart="227" departPosLat="random"/>
    <vehicle id="r8_251" type="mixed" route="r8" depart="227" departPosLat="random"/>
    <vehicle id="r0_252" type="mixed" route="r0" depart="228" departPosLat="random"/>
    <vehicle id="r6_253" type="mixed" route="r6" depart="228" departPosLat="random"/>
    <vehicle id="r3_254" type="mixed" route="r3" depart="230" departPosLat="random"/>
    <vehicle id="r2_255" type="mixed" route="r2" depart="231" departPosLat="random"/>
    <vehicle id="r5_256" type="mixed" route="r5" depart="233" departPosLat="random"/>
    <vehicle id="r7_257" type="mixed" route="r7" depart="233" departPosLat="random"/>
    <vehicle id="r3_258" type="mixed" route="r3" depart="234" departPosLat="random"/>
    <vehicle id="r10_259" type="mixed" route="r10" depart="235" departPosLat="random"/>
    <vehicle id="r2_260" type="mixed" route="r2" depart="236" departPosLat="random"/>
    <vehicle id="r9_261" type="mixed" route="r9" depart="237" departPosLat="random"/>
    <vehicle id="r4_262" type="mixed" route="r4" depart="239" departPosLat="random"/>
    <vehicle id="r0_263" type="mixed" route="r0" depart="240" departPosLat="random"/>
    <vehicle id="r10_264" type="mixed" route="r10" depart="240" departPosLat="random"/>
    <vehicle id="r8_265" type="mixed" route="r8" depart="240" departPosLat="random"/>
    <vehicle id="r5_266" type="mixed" route="r5" depart="241" departPosLat="random"/>
    <vehicle id="r9_267" type="mixed" route="r9" depart="242" departPosLat="random"/>
    <vehicle id="r6_268" type="mixed" route="r6" depart="243" departPosLat="random"/>
    <vehicle id="r0_269" type="mixed" route="r0" depart="244" departPosLat="random"/>
    <vehicle id="r0_270" type="mixed" route="r0" depart="244" departPosLat="random"/>
    <vehicle id="r11_271" type="mixed" route="r11" depart="245" departPosLat="random"/>
    <vehicle id="r1_272" type="mixed" route="r1" depart="246" departPosLat="random"/>
    <vehicle id="r7_273" type="mixed" route="r7" depart="247" departPosLat="random"/>
    <vehicle id="r2_274" type="mixed" route="r2" depart="248" departPosLat="random"/>
    <vehicle id="r8_275" type="mixed" route="r8" depart="249" departPosLat="random"/>
    <vehicle id="r11_276" type="mixed" route="r11" depart="250" departPosLat="random"/>
    <vehicle id="r2_277" type="mixed" route="r2" depart="250" departPosLat="random"/>
    <vehicle id="r4_278" type="mixed" route="r4" depart="250" departPosLat="random"/>
    <vehicle id="r0_279" type="mixed" route="r0" depart="251" departPosLat="random"/>
    <vehicle id="r2_280" type="mixed" route="r2" depart="252" departPosLat="random"/>
    <vehicle id="r4_281" type="mixed" route="r4" depart="252" departPosLat="random"/>
    <vehicle id="r2_282" type="mixed" route="r2" depart="252" departPosLat="random"/>
    <vehicle id="r2_283" type="mixed" route="r2" depart="252" departPosLat="random"/>
    <vehicle id="r4_284" type="mixed" route="r4" depart="252" departPosLat="random"/>
    <vehicle id="r11_285" type="mixed" route="r11" depart="253" departPosLat="random"/>
    <vehicle id="r11_286" type="mixed" route="r11" depart="254" departPosLat="random"/>
    <vehicle id="r9_287" type="mixed" route="r9" depart="255" departPosLat="random"/>
    <vehicle id="r0_288" type="mixed" route="r0" depart="255" departPosLat="random"/>
    <vehicle id="r6_289" type="mixed" route="r6" depart="255" departPosLat="random"/>
    <vehicle id="r10_290" type="mixed" route="r10" depart="256" departPosLat="random"/>
    <vehicle id="r9_291" type="mixed" route="r9" depart="256" departPosLat="random"/>
    <vehicle id="r0_292" type="mixed" route="r0" depart="256" departPosLat="random"/>
    <vehicle id="r9_293" type="mixed" route="r9" depart="257" departPosLat="random"/>
    <vehicle id="r2_294" type="mixed" route="r2" depart="257" departPosLat="random"/>
    <vehicle id="r5_295" type="mixed" route="r5" depart="257" departPosLat="random"/>
    <vehicle id="r3_296" type="mixed" route="r3" depart="258" departPosLat="random"/>
    <vehicle id="r7_297" type="mixed" route="r7" depart="260" departPosLat="random"/>
    <vehicle id="r8_298" type="mixed" route="r8" depart="260" departPosLat="random"/>
    <vehicle id="r1_299" type="mixed" route="r1" depart="260" departPosLat="random"/>
    <vehicle id="r1_300" type="mixed" route="r1" depart="261" departPosLat="random"/>
    <vehicle id="r0_301" type="mixed" route="r0" depart="261" departPosLat="random"/>
    <vehicle id="r9_302" type="mixed" route="r9" depart="262" departPosLat="random"/>
    <vehicle id="r11_303" type="mixed" route="r11" depart="262" departPosLat="random"/>
    <vehicle id="r8_304" type="mixed" route="r8" depart="263" departPosLat="random"/>
    <vehicle id="r9_305" type="mixed" route="r9" depart="263" departPosLat="random"/>
    <vehicle id="r6_306" type="mixed" route="r6" depart="263" departPosLat="random"/>
    <vehicle id="r0_307" type="mixed" route="r0" depart="263" departPosLat="random"/>
    <vehicle id="r1_308" type="mixed" route="r1" depart="264" departPosLat="random"/>
    <vehicle id="r8_309" type="mixed" route="r8" depart="264" departPosLat="random"/>
    <vehicle id="r1_310" type="mixed" route="r1" depart="265" departPosLat="random"/>
    <vehicle id="r3_311" type="mixed" route="r3" depart="266" departPosLat="random"/>
    <vehicle id="r5_312" type="mixed" route="r5" depart="266" departPosLat="random"/>
    <vehicle id="r10_313" type="mixed" route="r10" depart="267" departPosLat="random"/>
    <vehicle id="r2_314" type="mixed" route="r2" depart="267" departPosLat="random"/>
    <vehicle id="r7_315" type="mixed" route="r7" depart="267" departPosLat="random"/>
    <vehicle id="r5_316" type="mixed" route="r5" depart="268" departPosLat="random"/>
    <vehicle id="r3_317" type="mixed" route="r3" depart="268" departPosLat="random"/>
    <vehicle id="r1_318" type="mixed" route="r1" depart="268" departPosLat="random"/>
    <vehicle id="r2_319" type="mixed" route="r2" depart="269" departPosLat="random"/>
    <vehicle id="r0_320" type="mixed" route="r0" depart="269" departPosLat="random"/>
    <vehicle id="r2_321" type="mixed" route="r2" depart="270" departPosLat="random"/>
    <vehicle id="r11_322" type="mixed" route="r11" depart="271" departPosLat="random"/>
    <vehicle id="r1_323" type="mixed" route="r1" depart="273" departPosLat="random"/>
    <vehicle id="r8_324" type="mixed" route="r8" depart="273" departPosLat="random"/>
    <vehicle id="r8_325" type="mixed" route="r8" depart="273" departPosLat="random"/>
    <vehicle id="r9_326" type="mixed" route="r9" depart="273" departPosLat="random"/>
    <vehicle id="r10_327" type="mixed" route="r10" depart="274" departPosLat="random"/>
    <vehicle id="r11_328" type="mixed" route="r11" depart="274" departPosLat="random"/>
    <vehicle id="r10_329" type="mixed" route="r10" depart="274" departPosLat="random"/>
    <vehicle id="r7_330" type="mixed" route="r7" depart="274" departPosLat="random"/>
    <vehicle id="r5_331" type="mixed" route="r5" depart="276" departPosLat="random"/>
    <vehicle id="r10_332" type="mixed" route="r10" depart="278" departPosLat="random"/>
    <vehicle id="r0_333" type="mixed" route="r0" depart="278" departPosLat="random"/>
    <vehicle id="r6_334" type="mixed" route="r6" depart="279" departPosLat="random"/>
    <vehicle id="r3_335" type="mixed" route="r3" depart="279" departPosLat="random"/>
    <vehicle id="r10_336" type="mixed" route="r10" depart="280" departPosLat="random"/>
    <vehicle id="r11_337" type="mixed" route="r11" depart="280" departPosLat="random"/>
    <vehicle id="r7_338" type="mixed" route="r7" depart="281" departPosLat="random"/>
    <vehicle id="r3_339" type="mixed" route="r3" depart="281" departPosLat="random"/>