<routes>
    <vTypeDistribution id="mixed">
        <vType id="car" vClass="passenger" speedDev="0.2" latAlignment="compact" probability="0.6"/>
        <vType id="moped" vClass="moped" speedDev="0.4" latAlignment="compact" probability="0.4"/>
    </vTypeDistribution>
    <route id="r0" edges="51o 1i 2o 52i"/>
    <route id="r1" edges="51o 1i 4o 54i"/>
    <route id="r2" edges="51o 1i 3o 53i"/>
    <route id="r3" edges="54o 4i 3o 53i"/>
    <route id="r4" edges="54o 4i 1o 51i"/>
    <route id="r5" edges="54o 4i 2o 52i"/>
    <route id="r6" edges="52o 2i 1o 51i"/>
    <route id="r7" edges="52o 2i 4o 54i"/>
    <route id="r8" edges="52o 2i 3o 53i"/>
    <route id="r9" edges="53o 3i 4o 54i"/>
    <route id="r10" edges="53o 3i 1o 51i"/>
    <route id="r11" edges="53o 3i 2o 52i"/>
    <vehicle id="r4_0" type="mixed" route="r4" depart="34" departPosLat="random"/>
    <vehicle id="r7_1" type="mixed" route="r7" depart="36" departPosLat="random"/>
    <vehicle id="r2_2" type="mixed" route="r2" depart="37" departPosLat="random"/>
    <vehicle id="r8_3" type="mixed" route="r8" depart="40" departPosLat="random"/>
    <vehicle id="r2_4" type="mixed" route="r2" depart="42" departPosLat="random"/>
    <vehicle id="r10_5" type="mixed" route="r10" depart="48" departPosLat="random"/>
    <vehicle id="r7_6" type="mixed" route="r7" depart="52" departPosLat="random"/>
    <vehicle id="r1_7" type="mixed" route="r1" depart="53" departPosLat="random"/>
    <vehicle id="r5_8" type="mixed" route="r5" depart="53" departPosLat="random"/>
    <vehicle id="r0_9" type="mixed" route="r0" depart="55" departPosLat="random"/>
    <vehicle id="r7_10" type="mixed" route="r7" depart="57" departPosLat="random"/>
    <vehicle id="r5_11" type="mixed" route="r5" depart="57" departPosLat="random"/>
    <vehicle id="r3_12" type="mixed" route="r3" depart="60" departPosLat="random"/>
    <vehicle id="r2_13" type="mixed" route="r2" depart="61" departPosLat="random"/>
    <vehicle id="r6_14" type="mixed" route="r6" depart="62" departPosLat="random"/>
    <vehicle id="r5_15" type="mixed" route="r5" depart="65" departPosLat="random"/>
    <vehicle id="r7_16" type="mixed" route="r7" depart="67" departPosLat="random"/>
    <vehicle id="r5_17" type="mixed" route="r5" depart="68" departPosLat="random"/>
    <vehicle id="r4_18" type="mixed" route="r4" depart="68" departPosLat="random"/>
    <vehicle id="r8_19" type="mixed" route="r8" depart="68" departPosLat="random"/>
    <vehicle id="r8_20" type="mixed" route="r8" depart="71" departPosLat="random"/>
    <vehicle id="r4_21" type="mixed" route="r4" depart="71" departPosLat="random"/>
    <vehicle id="r4_22" type="mixed" route="r4" depart="72" departPosLat="random"/>
    <vehicle id="r11_23" type="mixed" route="r11" depart="73" departPosLat="random"/>
    <vehicle id="r10_24" type="mixed" route="r10" depart="75" departPosLat="random"/>
    <vehicle id="r6_25" type="mixed" route="r6" depart="77" departPosLat="random"/>
    <vehicle id="r10_26" type="mixed" route="r10" depart="78" departPosLat="random"/>
    <vehicle id="r5_27" type="mixed" route="r5" depart="79" departPosLat="random"/>
    <vehicle id="r5_28" type="mixed" route="r5" depart="80" departPosLat="random"/>
    <vehicle id="r4_29" type="mixed" route="r4" depart="80" departPosLat="random"/>
    <vehicle id="r2_30" type="mixed" route="r2" depart="80" departPosLat="random"/>
    <vehicle id="r11_31" type="mixed" route="r11" depart="82" departPosLat="random"/>
    <vehicle id="r1_32" type="mixed" route="r1" depart="82" departPosLat="random"/>
    <vehicle id="r9_33" type="mixed" route="r9" depart="82" departPosLat="random"/>
    <vehicle id="r11_34" type="mixed" route="r11" depart="83" departPosLat="random"/>
    <vehicle id="r8_35" type="mixed" route="r8" depart="85" departPosLat="random"/>
    <vehicle id="r4_36" type="mixed" route="r4" depart="86" departPosLat="random"/>
    <vehicle id="r10_37" type="mixed" route="r10" depart="88" departPosLat="random"/>
    <vehicle id="r7_38" type="mixed" route="r7" depart="89" departPosLat="random"/>
    <vehicle id="r3_39" type="mixed" route="r3" depart="89" departPosLat="random"/>
    <vehicle id="r1_40" type="mixed" route="r1" depart="92" departPosLat="random"/>
    <vehicle id="r8_41" type="mixed" route="r8" depart="93" departPosLat="random"/>
    <vehicle id="r2_42" type="mixed" route="r2" depart="94" departPosLat="random"/>
    <vehicle id="r9_43" type="mixed" route="r9" depart="96" departPosLat="random"/>
    <vehicle id="r11_44" type="mixed" route="r11" depart="96" departPosLat="random"/>
    <vehicle id="r8_45" type="mixed" route="r8" depart="97" departPosLat="random"/>
    <vehicle id="r8_46" type="mixed" route="r8" depart="97" departPosLat="random"/>
    <vehicle id="r7_47" type="mixed" route="r7" depart="97" departPosLat="random"/>
    <vehicle id="r10_48" type="mixed" route="r10" depart="98" departPosLat="random"/>
    <vehicle id="r5_49" type="mixed" route="r5" depart="100" departPosLat="random"/>
    <vehicle id="r2_50" type="mixed" route="r2" depart="100" departPosLat="random"/>
    <vehicle id="r3_51" type="mixed" route="r3" depart="102" departPosLat="random"/>
    <vehicle id="r2_52" type="mixed" route="r2" depart="102" departPosLat="random"/>
    <vehicle id="r1_53" type="mixed" route="r1" depart="102" departPosLat="random"/>
    <vehicle id="r8_54" type="mixed" route="r8" depart="104" departPosLat="random"/>
    <vehicle id="r5_55" type="mixed" route="r5" depart="105" departPosLat="random"/>
    <vehicle id="r9_56" type="mixed" route="r9" depart="108" departPosLat="random"/>
    <vehicle id="r6_57" type="mixed" route="r6" depart="108" departPosLat="random"/>
    <vehicle id="r8_58" type="mixed" route="r8" depart="108" departPosLat="random"/>
    <vehicle id="r11_59" type="mixed" route="r11" depart="108" departPosLat="random"/>
    <vehicle id="r0_60" type="mixed" route="r0" depart="108" departPosLat="random"/>
    <vehicle id="r6_61" type="mixed" route="r6" depart="109" departPosLat="random"/>
    <vehicle id="r3_62" type="mixed" route="r3" depart="109" departPosLat="random"/>
    <vehicle id="r3_63" type="mixed" route="r3" depart="110" departPosLat="random"/>
    <vehicle id="r1_64" type="mixed" route="r1" depart="115" departPosLat="random"/>
    <vehicle id="r9_65" type="mixed" route="r9" depart="115" departPosLat="random"/>
    <vehicle id="r0_66" type="mixed" route="r0" depart="115" departPosLat="random"/>
    <vehicle id="r10_67" type="mixed" route="r10" depart="115" departPosLat="random"/>
    <vehicle id="r8_68" type="mixed" route="r8" depart="119" departPosLat="random"/>
    <vehicle id="r9_69" type="mixed" route="r9" depart="120" departPosLat="random"/>
    <vehicle id="r3_70" type="mixed" route="r3" depart="120" departPosLat="random"/>
    <vehicle id="r1_71" type="mixed" route="r1" depart="122" departPosLat="random"/>
    <vehicle id="r0_72" type="mixed" route="r0" depart="122" departPosLat="random"/>
    <vehicle id="r1_73" type="mixed" route="r1" depart="122" departPosLat="random"/>
    <vehicle id="r0_74" type="mixed" route="r0" depart="126" departPosLat="random"/>
    <vehicle id="r8_75" type="mixed" route="r8" depart="128" departPosLat="random"/>
    <vehicle id="r7_76" type="mixed" route="r7" depart="128" departPosLat="random"/>
    <vehicle id="r0_77" type="mixed" route="r0" depart="130" departPosLat="random"/>
    <vehicle id="r7_78" type="mixed" route="r7" depart="130" departPosLat="random"/>
    <vehicle id="r10_79" type="mixed" route="r10" depart="130" departPosLat="random"/>
    <vehicle id="r1_80" type="mixed" route="r1" depart="131" departPosLat="random"/>
    <vehicle id="r4_81" type="mixed" route="r4" depart="132" departPosLat="random"/>
    <vehicle id="r3_82" type="mixed" route="r3" depart="132" departPosLat="random"/>
    <vehicle id="r3_83" type="mixed" route="r3" depart="133" departPosLat="random"/>
    <vehicle id="r1_84" type="mixed" route="r1" depart="134" departPosLat="random"/>
    <vehicle id="r8_85" type="mixed" route="r8" depart="135" departPosLat="random"/>
    <vehicle id="r7_86" type="mixed" route="r7" depart="136" departPosLat="random"/>
    <vehicle id="r6_87" type="mixed" route="r6" depart="137" departPosLat="random"/>
    <vehicle id="r11_88" type="mixed" route="r11" depart="138" departPosLat="random"/>
    <vehicle id="r2_89" type="mixed" route="r2" depart="139" departPosLat="random"/>
    <vehicle id="r3_90" type="mixed" route="r3" depart="139" departPosLat="random"/>
    <vehicle id="r0_91" type="mixed" route="r0" depart="140" departPosLat="random"/>
    <vehicle id="r2_92" type="mixed" route="r2" depart="140" departPosLat="random"/>
    <vehicle id="r1_93" type="mixed" route="r1" depart="141" departPosLat="random"/>
    <vehicle id="r9_94" type="mixed" route="r9" depart="141" departPosLat="random"/>
    <vehicle id="r5_95" type="mixed" route="r5" depart="142" departPosLat="random"/>
    <vehicle id="r5_96" type="mixed" route="r5" depart="142" departPosLat="random"/>
    <vehicle id="r3_97" type="mixed" route="r3" depart="143" departPosLat="random"/>
    <vehicle id="r4_98" type="mixed" route="r4" depart="145" departPosLat="random"/>
    <vehicle id="r2_99" type="mixed" route="r2" depart="145" departPosLat="random"/>
    <vehicle id="r11_100" type="mixed" route="r11" depart="146" departPosLat="random"/>
    <vehicle id="r8_101" type="mixed" route="r8" depart="146" departPosLat="random"/>
    <vehicle id="r5_102" type="mixed" route="r5" depart="147" departPosLat="random"/>
    <vehicle id="r8_103" type="mixed" route="r8" depart="148" departPosLat="random"/>
    <vehicle id="r9_104" type="mixed" route="r9" depart="148" departPosLat="random"/>
    <vehicle id="r7_105" type="mixed" route="r7" depart="148" departPosLat="random"/>
    <vehicle id="r7_106" type="mixed" route="r7" depart="149" departPosLat="random"/>
    <vehicle id="r0_107" type="mixed" route="r0" depart="149" departPosLat="random"/>
    <vehicle id="r7_108" type="mixed" route="r7" depart="149" departPosLat="random"/>
    <vehicle id="r3_109" type="mixed" route="r3" depart="149" departPosLat="random"/>
    <vehicle id="r7_110" type="mixed" route="r7" depart="151" departPosLat="random"/>
    <vehicle id="r1_111" type="mixed" route="r1" depart="151" departPosLat="random"/>
    <vehicle id="r8_112" type="mixed" route="r8" depart="152" departPosLat="random"/>
    <vehicle id="r6_113" type="mixed" route="r6" depart="152" departPosLat="random"/>
    <vehicle id="r9_114" type="mixed" route="r9" depart="153" departPosLat="random"/>
    <vehicle id="r3_115" type="mixed" route="r3" depart="154" departPosLat="random"/>
    <vehicle id="r10_116" type="mixed" route="r10" depart="155" departPosLat="random"/>
    <vehicle id="r1_117" type="mixed" route="r1" depart="155" departPosLat="random"/>
    <vehicle id="r3_118" type="mixed" route="r3" depart="155" departPosLat="random"/>
    <vehicle id="r10_119" type="mixed" route="r10" depart="155" departPosLat="random"/>
    <vehicle id="r8_120" type="mixed" route="r8" depart="156" departPosLat="random"/>
    <vehicle id="r10_121" type="mixed" route="r10" depart="157" departPosLat="random"/>
    <vehicle id="r6_122" type="mixed" route="r6" depart="157" departPosLat="random"/>
    <vehicle id="r7_123" type="mixed" route="r7" depart="157" departPosLat="random"/>
    <vehicle id="r6_124" type="mixed" route="r6" depart="160" departPosLat="random"/>
    <vehicle id="r1_125" type="mixed" route="r1" depart="160" departPosLat="random"/>
    <vehicle id="r10_126" type="mixed" route="r10" depart="160" departPosLat="random"/>
    <vehicle id="r6_127" type="mixed" route="r6" depart="162" departPosLat="random"/>
    <vehicle id="r8_128" type="mixed" route="r8" depart="163" departPosLat="random"/>
    <vehicle id="r9_129" type="mixed" route="r9" depart="163" departPosLat="random"/>
    <vehicle id="r6_130" type="mixed" route="r6" depart="164" departPosLat="random"/>
    <vehicle id="r7_131" type="mixed" route="r7" depart="164" departPosLat="random"/>
    <vehicle id="r11_132" type="mixed" route="r11" depart="164" departPosLat="random"/>
    <vehicle id="r11_133" type="mixed" route="r11" depart="165" departPosLat="random"/>
    <vehicle id="r3_134" type="mixed" route="r3" depart="166" departPosLat="random"/>
    <vehicle id="r2_135" type="mixed" route="r2" depart="168" departPosLat="random"/>
    <vehicle id="r9_136" type="mixed" route="r9" depart="168" departPosLat="random"/>
    <vehicle id="r8_137" type="mixed" route="r8" depart="168" departPosLat="random"/>
    <vehicle id="r1_138" type="mixed" route="r1" depart="169" departPosLat="random"/>
    <vehicle id="r3_139" type="mixed" route="r3" depart="171" departPosLat="random"/>
    <vehicle id="r3_140" type="mixed" route="r3" depart="171" departPosLat="random"/>
    <vehicle id="r4_141" type="mixed" route="r4" depart="171" departPosLat="random"/>
    <vehicle id="r2_142" type="mixed" route="r2" depart="172" departPosLat="random"/>
    <vehicle id="r4_143" type="mixed" route="r4" depart="172" departPosLat="random"/>
    <vehicle id="r0_144" type="mixed" route="r0" depart="173" departPosLat="random"/>
    <vehicle id="r2_145" type="mixed" route="r2" depart="174" departPosLat="random"/>
    <vehicle id="r5_146" type="mixed" route="r5" depart="174" departPosLat="random"/>
    <vehicle id="r11_147" type="mixed" route="r11" depart="175" departPosLat="random"/>
    <vehicle id="r7_148" type="mixed" route="r7" depart="175" departPosLat="random"/>
    <vehicle id="r6_149" type="mixed" route="r6" depart="176" departPosLat="random"/>
    <vehicle id="r5_150" type="mixed" route="r5" depart="176" departPosLat="random"/>
    <vehicle id="r8_151" type="mixed" route="r8" depart="176" departPosLat="random"/>
    <vehicle id="r0_152" type="mixed" route="r0" depart="177" departPosLat="random"/>
    <vehicle id="r3_153" type="mixed" route="r3" depart="177" departPosLat="random"/>
    <vehicle id="r2_154" type="mixed" route="r2" depart="177" departPosLat="random"/>
    <vehicle id="r10_155" type="mixed" route="r10" depart="178" departPosLat="random"/>
    <vehicle id="r11_156" type="mixed" route="r11" depart="178" departPosLat="random"/>
    <vehicle id="r2_157" type="mixed" route="r2" depart="179" departPosLat="random"/>
    <vehicle id="r6_158" type="mixed" route="r6" depart="179" departPosLat="random"/>
    <vehicle id="r9_159" type="mixed" route="r9" depart="179" departPosLat="random"/>
    <vehicle id="r11_160" type="mixed" route="r11" depart="179" departPosLat="random"/>
    <vehicle id="r11_161" type="mixed" route="r11" depart="180" departPosLat="random"/>
    <vehicle id="r8_162" type="mixed" route="r8" depart="182" departPosLat="random"/>
    <vehicle id="r1_163" type="mixed" route="r1" depart="182" departPosLat="random"/>
    <vehicle id="r3_164" type="mixed" route="r3" depart="184" departPosLat="random"/>
    <vehicle id="r9_165" type="mixed" route="r9" depart="185" departPosLat="random"/>
    <vehicle id="r2_166" type="mixed" route="r2" depart="185" departPosLat="random"/>
    <vehicle id="r7_167" type="mixed" route="r7" depart="185" departPosLat="random"/>
    <vehicle id="r4_168" type="mixed" route="r4" depart="186" departPosLat="random"/>
    <vehicle id="r5_169" type="mixed" route="r5" depart="186" departPosLat="random"/>
    <vehicle id="r0_170" type="mixed" route="r0" depart="186" departPosLat="random"/>
    <vehicle id="r11_171" type="mixed" route="r11" depart="186" departPosLat="random"/>
    <vehicle id="r1_172" type="mixed" route="r1" depart="187" departPosLat="random"/>
    <vehicle id="r6_173" type="mixed" route="r6" depart="190" departPosLat="random"/>
    <vehicle id="r6_174" type="mixed" route="r6" depart="190" departPosLat="random"/>
    <vehicle id="r1_175" type="mixed" route="r1" depart="191" departPosLat="random"/>
    <vehicle id="r3_176" type="mixed" route="r3" depart="192" departPosLat="random"/>
    <vehicle id="r8_177" type="mixed" route="r8" depart="192" departPosLat="random"/>
    <vehicle id="r2_178" type="mixed" route="r2" depart="192" departPosLat="random"/>
    <vehicle id="r5_179" type="mixed" route="r5" depart="193" departPosLat="random"/>
    <vehicle id="r3_180" type="mixed" route="r3" depart="194" departPosLat="random"/>
    <vehicle id="r0_181" type="mixed" route="r0" depart="194" departPosLat="random"/>
    <vehicle id="r11_182" type="mixed" route="r11" depart="194" departPosLat="random"/>
    <vehicle id="r0_183" type="mixed" route="r0" depart="194" departPosLat="random"/>
    <vehicle id="r8_184" type="mixed" route="r8" depart="194" departPosLat="random"/>
    <vehicle id="r7_185" type="mixed" route="r7" depart="194" departPosLat="random"/>
    <vehicle id="r6_186" type="mixed" route="r6" depart="195" departPosLat="random"/>
    <vehicle id="r3_187" type="mixed" route="r3" depart="195" departPosLat="random"/>
    <vehicle id="r7_188" type="mixed" route="r7" depart="196" departPosLat="random"/>
    <vehicle id="r3_189" type="mixed" route="r3" depart="198" departPosLat="random"/>
    <vehicle id="r8_190" type="mixed" route="r8" depart="199" departPosLat="random"/>
    <vehicle id="r2_191" type="mixed" route="r2" depart="201" departPosLat="random"/>
    <vehicle id="r4_192" type="mixed" route="r4" depart="202" departPosLat="random"/>
    <vehicle id="r6_193" type="mixed" route="r6" depart="202" departPosLat="random"/>
    <vehicle id="r5_194" type="mixed" route="r5" depart="203" departPosLat="random"/>
    <vehicle id="r2_195" type="mixed" route="r2" depart="203" departPosLat="random"/>
    <vehicle id="r5_196" type="mixed" route="r5" depart="203" departPosLat="random"/>
    <vehicle id="r2_197" type="mixed" route="r2" depart="204" departPosLat="random"/>
    <vehicle id="r4_198" type="mixed" route="r4" depart="204" departPosLat="random"/>
    <vehicle id="r8_199" type="mixed" route="r8" depart="204" departPosLat="random"/>
    <vehicle id="r4_200" type="mixed" route="r4" depart="205" departPosLat="random"/>
    <vehicle id="r4_201" type="mixed" route="r4" depart="205" departPosLat="random"/>
    <vehicle id="r4_202" type="mixed" route="r4" depart="206" departPosLat="random"/>
    <vehicle id="r7_203" type="mixed" route="r7" depart="206" departPosLat="random"/>
    <vehicle id="r5_204" type="mixed" route="r5" depart="206" departPosLat="random"/>
    <vehicle id="r3_205" type="mixed" route="r3" depart="206" departPosLat="random"/>
    <vehicle id="r11_206" type="mixed" route="r11" depart="208" departPosLat="random"/>
    <vehicle id="r11_207" type="mixed" route="r11" depart="209" departPosLat="random"/>
    <vehicle id="r10_208" type="mixed" route="r10" depart="209" departPosLat="random"/>
    <vehicle id="r3_209" type="mixed" route="r3" depart="209" departPosLat="random"/>
    <vehicle id="r6_210" type="mixed" route="r6" depart="210" departPosLat="random"/>
    <vehicle id="r0_211" type="mixed" route="r0" depart="210" departPosLat="random"/>
    <vehicle id="r5_212" type="mixed" route="r5" depart="211" departPosLat="random"/>
    <vehicle id="r9_213" type="mixed" route="r9" depart="211" departPosLat="random"/>
    <vehicle id="r4_214" type="mixed" route="r4" depart="211" departPosLat="random"/>
    <vehicle id="r8_215" type="mixed" route="r8" depart="212" departPosLat="random"/>
    <vehicle id="r11_216" type="mixed" route="r11" depart="213" departPosLat="random"/>
    <vehicle id="r8_217" type="mixed" route="r8" depart="214" departPosLat="random"/>
    <vehicle id="r9_218" type="mixed" route="r9" depart="215" departPosLat="random"/>
    <vehicle id="r7_219" type="mixed" route="r7" depart="215" departPosLat="random"/>
    <vehicle id="r7_220" type="mixed" route="r7" depart="216" departPosLat="random"/>
    <vehicle id="r10_221" type="mixed" route="r10" depart="216" departPosLat="random"/>
    <vehicle id="r10_222" type="mixed" route="r10" depart="217" departPosLat="random"/>
    <vehicle id="r9_223" type="mixed" route="r9" depart="217" departPosLat="random"/>
    <vehicle id="r2_224" type="mixed" route="r2" depart="218" departPosLat="random"/>
    <vehicle id="r10_225" type="mixed" route="r10" depart="218" departPosLat="random"/>
    <vehicle id="r5_226" type="mixed" route="r5" depart="218" departPosLat="random"/>
    <vehicle id="r4_227" type="mixed" route="r4" depart="219" departPosLat="random"/>
    <vehicle id="r9_228" type="mixed" route="r9" depart="219" departPosLat="random"/>
    <vehicle id="r4_229" type="mixed" route="r4" depart="220" departPosLat="random"/>
    <vehicle id="r11_230" type="mixed" route="r11" depart="220" departPosLat="random"/>
    <vehicle id="r3_231" type="mixed" route="r3" depart="220" departPosLat="random"/>
    <vehicle id="r0_232" type="mixed" route="r0" depart="221" departPosLat="random"/>
    <vehicle id="r11_233" type="mixed" route="r11" depart="221" departPosLat="random"/>
    <vehicle id="r6_234" type="mixed" route="r6" depart="221" departPosLat="random"/>
    <vehicle id="r2_235" type="mixed" route="r2" depart="221" departPosLat="random"/>
    <vehicle id="r1_236" type="mixed" route="r1" depart="222" departPosLat="random"/>
    <vehicle id="r7_237" type="mixed" route="r7" depart="223" departPosLat="random"/>
    <vehicle id="r2_238" type="mixed" route="r2" depart="224" departPosLat="random"/>
    <vehicle id="r6_239" type="mixed" route="r6" depart="224" departPosLat="random"/>
    <vehicle id="r10_240" type="mixed" route="r10" depart="224" departPosLat="random"/>
    <vehicle id="r0_241" type="mixed" route="r0" depart="224" departPosLat="random"/>
    <vehicle id="r8_242" type="mixed" route="r8" depart="224" departPosLat="random"/>
    <vehicle id="r11_243" type="mixed" route="r11" depart="224" departPosLat="random"/>
    <vehicle id="r6_244" type="mixed" route="r6" depart="225" departPosLat="random"/>
    <vehicle id="r9_245" type="mixed" route="r9" depart="226" departPosLat="random"/>
    <vehicle id="r7_246" type="mixed" route="r7" depart="226" departPosLat="random"/>
    <vehicle id="r6_247" type="mixed" route="r6" depart="226" departPosLat="random"/>
    <vehicle id="r7_248" type="mixed" route="r7" depart="227" departPosLat="random"/>
    <vehicle id="r4_249" type="mixed" route="r4" depart="227" departPosLat="random"/>
    <vehicle id="r4_250" type="mixed" route="r4" depart="227" departPosLat="random"/>
    <vehicle id="r3_251" type="mixed" route="r3" depart="227" departPosLat="random"/>
    <vehicle id="r6_252" type="mixed" route="r6" depart="228" departPosLat="random"/>
    <vehicle id="r7_253" type="mixed" route="r7" depart="228" departPosLat="random"/>
    <vehicle id="r4_254" type="mixed" route="r4" depart="230" departPosLat="random"/>
    <vehicle id="r2_255" type="mixed" route="r2" depart="231" departPosLat="random"/>
    <vehicle id="r3_256" type="mixed" route="r3" depart="233" departPosLat="random"/>
    <vehicle id="r6_257" type="mixed" route="r6" depart="233" departPosLat="random"/>
    <vehicle id="r3_258" type="mixed" route="r3" depart="234" departPosLat="random"/>
    <vehicle id="r0_259" type="mixed" route="r0" depart="235" departPosLat="random"/>
    <vehicle id="r11_260" type="mixed" route="r11" depart="236" departPosLat="random"/>
    <vehicle id="r6_261" type="mixed" route="r6" depart="237" departPosLat="random"/>
    <vehicle id="r2_262" type="mixed" route="r2" depart="239" departPosLat="random"/>
    <vehicle id="r6_263" type="mixed" route="r6" depart="240" departPosLat="random"/>
    <vehicle id="r0_264" type="mixed" route="r0" depart="240" departPosLat="random"/>
    <vehicle id="r8_265" type="mixed" route="r8" depart="240" departPosLat="random"/>
    <vehicle id="r10_266" type="mixed" route="r10" depart="241" departPosLat="random"/>
    <vehicle id="r0_267" type="mixed" route="r0" depart="242" departPosLat="random"/>
    <vehicle id="r1_268" type="mixed" route="r1" depart="243" departPosLat="random"/>
    <vehicle id="r6_269" type="mixed" route="r6" depart="244" departPosLat="random"/>
    <vehicle id="r3_270" type="mixed" route="r3" depart="244" departPosLat="random"/>
    <vehicle id="r7_271" type="mixed" route="r7" depart="245" departPosLat="random"/>
    <vehicle id="r2_272" type="mixed" route="r2" depart="246" departPosLat="random"/>
    <vehicle id="r10_273" type="mixed" route="r10" depart="247" departPosLat="random"/>
    <vehicle id="r11_274" type="mixed" route="r11" depart="248" departPosLat="random"/>
    <vehicle id="r10_275" type="mixed" route="r10" depart="249" departPosLat="random"/>
    <vehicle id="r8_276" type="mixed" route="r8" depart="250" departPosLat="random"/>
    <vehicle id="r3_277" type="mixed" route="r3" depart="250" departPosLat="random"/>
    <vehicle id="r1_278" type="mixed" route="r1" depart="250" departPosLat="random"/>
    <vehicle id="r8_279" type="mixed" route="r8" depart="251" departPosLat="random"/>
    <vehicle id="r6_280" type="mixed" route="r6" depart="252" departPosLat="random"/>
    <vehicle id="r6_281" type="mixed" route="r6" depart="252" departPosLat="random"/>
    <vehicle id="r9_282" type="mixed" route="r9" depart="252" departPosLat="random"/>
    <vehicle id="r6_283" type="mixed" route="r6" depart="252" departPosLat="random"/>
    <vehicle id="r11_284" type="mixed" route="r11" depart="252" departPosLat="random"/>
    <vehicle id="r9_285" type="mixed" route="r9" depart="253" departPosLat="random"/>
    <vehicle id="r6_286" type="mixed" route="r6" depart="254" departPosLat="random"/>
    <vehicle id="r0_287" type="mixed" route="r0" depart="255" departPosLat="random"/>
    <vehicle id="r10_288" type="mixed" route="r10" depart="255" departPosLat="random"/>
    <vehicle id="r11_289" type="mixed" route="r11" depart="255" departPosLat="random"/>
    <vehicle id="r0_290" type="mixed" route="r0" depart="256" departPosLat="random"/>
    <vehicle id="r1_291" type="mixed" route="r1" depart="256" departPosLat="random"/>
    <vehicle id="r1_292" type="mixed" route="r1" depart="256" departPosLat="random"/>
    <vehicle id="r8_293" type="mixed" route="r8" depart="257" departPosLat="random"/>
    <vehicle id="r3_294" type="mixed" route="r3" depart="257" departPosLat="random"/>
    <vehicle id="r1_295" type="mixed" route="r1" depart="257" departPosLat="random"/>
    <vehicle id="r1_296" type="mixed" route="r1" depart="258" departPosLat="random"/>
    <vehicle id="r3_297" type="mixed" route="r3" depart="260" departPosLat="random"/>
    <vehicle id="r1_298" type="mixed" route="r1" depart="260" departPosLat="random"/>
    <vehicle id="r3_299" type="mixed" route="r3" depart="260" departPosLat="random"/>
    <vehicle id="r6_300" type="mixed" route="r6" depart="261" departPosLat="random"/>
    <vehicle id="r7_301" type="mixed" route="r7" depart="261" departPosLat="random"/>
    <vehicle id="r10_302" type="mixed" route="r10" depart="262" departPosLat="random"/>
    <vehicle id="r4_303" type="mixed" route="r4" depart="262" departPosLat="random"/>
    <vehicle id="r7_304" type="mixed" route="r7" depart="263" departPosLat="random"/>
    <vehicle id="r4_305" type="mixed" route="r4" depart="263" departPosLat="random"/>
    <vehicle id="r7_306" type="mixed" route="r7" depart="263" departPosLat="random"/>
    <vehicle id="r2_307" type="mixed" route="r2" depart="263" departPosLat="random"/>
    <vehicle id="r4_308" type="mixed" route="r4" depart="264" departPosLat="random"/>
    <vehicle id="r11_309" type="mixed" route="r11" depart="264" departPosLat="random"/>
    <vehicle id="r4_310" type="mixed" route="r4" depart="265" departPosLat="random"/>
    <vehicle id="r8_311" type="mixed" route="r8" depart="266" departPosLat="random"/>
    <vehicle id="r3_312" type="mixed" route="r3" depart="266" departPosLat="random"/>
    <vehicle id="r1_313" type="mixed" route="r1" depart="267" departPosLat="random"/>
    <vehicle id="r9_314" type="mixed" route="r9" depart="267" departPosLat="random"/>
    <vehicle id="r0_315" type="mixed" route="r0" depart="267" departPosLat="random"/>
    <vehicle id="r7_316" type="mixed" route="r7" depart="268" departPosLat="random"/>
    <vehicle id="r10_317" type="mixed" route="r10" depart="268" departPosLat="random"/>
    <vehicle id="r5_318" type="mixed" route="r5" depart="268" departPosLat="random"/>
    <vehicle id="r11_319" type="mixed" route="r11" depart="269" departPosLat="random"/>
    <vehicle id="r8_320" type="mixed" route="r8" depart="269" departPosLat="random"/>
    <vehicle id="r5_321" type="mixed" route="r5" depart="270" departPosLat="random"/>
    <vehicle id="r10_322" type="mixed" route="r10" depart="271" departPosLat="random"/>
    <vehicle id="r6_323" type="mixed" route="r6" depart="273" departPosLat="random"/>
    <vehicle id="r11_324" type="mixed" route="r11" depart="273" departPosLat="random"/>
    <vehicle id="r0_325" type="mixed" route="r0" depart="273" departPosLat="random"/>
    <vehicle id="r3_326" type="mixed" route="r3" depart="273" departPosLat="random"/>
    <vehicle id="r8_327" type="mixed" route="r8" depart="274" departPosLat="random"/>
    <vehicle id="r5_328" type="mixed" route="r5" depart="274" departPosLat="random"/>
    <vehicle id="r2_329" type="mixed" route="r2" depart="274" departPosLat="random"/>
    <vehicle id="r9_330" type="mixed" route="r9" depart="274" departPosLat="random"/>
    <vehicle id="r0_331" type="mixed" route="r0" depart="276" departPosLat="random"/>
    <vehicle id="r5_332" type="mixed" route="r5" depart="278" departPosLat="random"/>
    <vehicle id="r9_333" type="mixed" route="r9" depart="278" departPosLat="random"/>
    <vehicle id="r8_334" type="mixed" route="r8" depart="279" departPosLat="random"/>
    <vehicle id="r10_335" type="mixed" route="r10" depart="279" departPosLat="random"/>
    <vehicle id="r5_336" type="mixed" route="r5" depart="280" departPosLat="random"/>
    <vehicle id="r5_337" type="mixed" route="r5" depart="280" departPosLat="random"/>
    <vehicle id="r7_338" type="mixed" route="r7" depart="281" departPosLat="random"/>
    <vehicle id="r10_339" type="mixed" route="r10" depart="281" departPosLat="random"/>