<routes>
    <vTypeDistribution id="mixed">
        <vType id="car" vClass="passenger" speedDev="0.2" latAlignment="compact" probability="0.6"/>
        <vType id="moped" vClass="moped" speedDev="0.4" latAlignment="compact" probability="0.4"/>
    </vTypeDistribution>
    <route id="r0" edges="51o 1i 2o 52i"/>
    <route id="r1" edges="51o 1i 4o 54i"/>
    <route id="r2" edges="51o 1i 3o 53i"/>
    <route id="r3" edges="54o 4i 3o 53i"/>
    <route id="r4" edges="54o 4i 1o 51i"/>
    <route id="r5" edges="54o 4i 2o 52i"/>
    <route id="r6" edges="52o 2i 1o 51i"/>
    <route id="r7" edges="52o 2i 4o 54i"/>
    <route id="r8" edges="52o 2i 3o 53i"/>
    <route id="r9" edges="53o 3i 4o 54i"/>
    <route id="r10" edges="53o 3i 1o 51i"/>
    <route id="r11" edges="53o 3i 2o 52i"/>
    <vehicle id="r8_0" type="mixed" route="r8" depart="36" departPosLat="random"/>
    <vehicle id="r6_1" type="mixed" route="r6" depart="37" departPosLat="random"/>
    <vehicle id="r3_2" type="mixed" route="r3" depart="42" departPosLat="random"/>
    <vehicle id="r7_3" type="mixed" route="r7" depart="48" departPosLat="random"/>
    <vehicle id="r1_4" type="mixed" route="r1" depart="52" departPosLat="random"/>
    <vehicle id="r10_5" type="mixed" route="r10" depart="53" departPosLat="random"/>
    <vehicle id="r6_6" type="mixed" route="r6" depart="55" departPosLat="random"/>
    <vehicle id="r0_7" type="mixed" route="r0" depart="60" departPosLat="random"/>
    <vehicle id="r11_8" type="mixed" route="r11" depart="61" departPosLat="random"/>
    <vehicle id="r11_9" type="mixed" route="r11" depart="62" departPosLat="random"/>
    <vehicle id="r10_10" type="mixed" route="r10" depart="65" departPosLat="random"/>
    <vehicle id="r2_11" type="mixed" route="r2" depart="68" departPosLat="random"/>
    <vehicle id="r0_12" type="mixed" route="r0" depart="68" departPosLat="random"/>
    <vehicle id="r6_13" type="mixed" route="r6" depart="71" departPosLat="random"/>
    <vehicle id="r6_14" type="mixed" route="r6" depart="72" departPosLat="random"/>
    <vehicle id="r6_15" type="mixed" route="r6" depart="77" departPosLat="random"/>
    <vehicle id="r4_16" type="mixed" route="r4" depart="78" departPosLat="random"/>
    <vehicle id="r8_17" type="mixed" route="r8" depart="80" departPosLat="random"/>
    <vehicle id="r0_18" type="mixed" route="r0" depart="80" departPosLat="random"/>
    <vehicle id="r9_19" type="mixed" route="r9" depart="82" departPosLat="random"/>
    <vehicle id="r5_20" type="mixed" route="r5" depart="82" departPosLat="random"/>
    <vehicle id="r0_21" type="mixed" route="r0" depart="85" departPosLat="random"/>
    <vehicle id="r5_22" type="mixed" route="r5" depart="88" departPosLat="random"/>
    <vehicle id="r3_23" type="mixed" route="r3" depart="89" departPosLat="random"/>
    <vehicle id="r4_24" type="mixed" route="r4" depart="92" departPosLat="random"/>
    <vehicle id="r1_25" type="mixed" route="r1" depart="94" departPosLat="random"/>
    <vehicle id="r8_26" type="mixed" route="r8" depart="96" departPosLat="random"/>
    <vehicle id="r11_27" type="mixed" route="r11" depart="97" departPosLat="random"/>
    <vehicle id="r0_28" type="mixed" route="r0" depart="97" departPosLat="random"/>
    <vehicle id="r0_29" type="mixed" route="r0" depart="98" departPosLat="random"/>
    <vehicle id="r2_30" type="mixed" route="r2" depart="100" departPosLat="random"/>
    <vehicle id="r0_31" type="mixed" route="r0" depart="102" departPosLat="random"/>
    <vehicle id="r6_32" type="mixed" route="r6" depart="102" departPosLat="random"/>
    <vehicle id="r6_33" type="mixed" route="r6" depart="102" departPosLat="random"/>
    <vehicle id="r9_34" type="mixed" route="r9" depart="105" departPosLat="random"/>
    <vehicle id="r6_35" type="mixed" route="r6" depart="108" departPosLat="random"/>
    <vehicle id="r8_36" type="mixed" route="r8" depart="108" departPosLat="random"/>
    <vehicle id="r9_37" type="mixed" route="r9" depart="108" departPosLat="random"/>
    <vehicle id="r1_38" type="mixed" route="r1" depart="108" departPosLat="random"/>
    <vehicle id="r10_39" type="mixed" route="r10" depart="109" departPosLat="random"/>
    <vehicle id="r3_40" type="mixed" route="r3" depart="109" departPosLat="random"/>
    <vehicle id="r8_41" type="mixed" route="r8" depart="115" departPosLat="random"/>
    <vehicle id="r4_42" type="mixed" route="r4" depart="115" departPosLat="random"/>
    <vehicle id="r8_43" type="mixed" route="r8" depart="115" departPosLat="random"/>
    <vehicle id="r3_44" type="mixed" route="r3" depart="120" departPosLat="random"/>
    <vehicle id="r3_45" type="mixed" route="r3" depart="120" departPosLat="random"/>
    <vehicle id="r0_46" type="mixed" route="r0" depart="122" departPosLat="random"/>
    <vehicle id="r8_47" type="mixed" route="r8" depart="122" departPosLat="random"/>
    <vehicle id="r3_48" type="mixed" route="r3" depart="126" departPosLat="random"/>
    <vehicle id="r8_49" type="mixed" route="r8" depart="128" departPosLat="random"/>
    <vehicle id="r4_50" type="mixed" route="r4" depart="128" departPosLat="random"/>
    <vehicle id="r8_51" type="mixed" route="r8" depart="130" departPosLat="random"/>
    <vehicle id="r0_52" type="mixed" route="r0" depart="131" departPosLat="random"/>
    <vehicle id="r6_53" type="mixed" route="r6" depart="134" departPosLat="random"/>
    <vehicle id="r4_54" type="mixed" route="r4" depart="135" departPosLat="random"/>
    <vehicle id="r10_55" type="mixed" route="r10" depart="136" departPosLat="random"/>
    <vehicle id="r6_56" type="mixed" route="r6" depart="137" departPosLat="random"/>
    <vehicle id="r1_57" type="mixed" route="r1" depart="138" departPosLat="random"/>
    <vehicle id="r2_58" type="mixed" route="r2" depart="139" departPosLat="random"/>
    <vehicle id="r6_59" type="mixed" route="r6" depart="139" departPosLat="random"/>
    <vehicle id="r1_60" type="mixed" route="r1" depart="140" departPosLat="random"/>
    <vehicle id="r0_61" type="mixed" route="r0" depart="142" departPosLat="random"/>
    <vehicle id="r9_62" type="mixed" route="r9" depart="142" departPosLat="random"/>
    <vehicle id="r9_63" type="mixed" route="r9" depart="143" departPosLat="random"/>
    <vehicle id="r5_64" type="mixed" route="r5" depart="145" departPosLat="random"/>
    <vehicle id="r9_65" type="mixed" route="r9" depart="146" departPosLat="random"/>
    <vehicle id="r4_66" type="mixed" route="r4" depart="146" departPosLat="random"/>
    <vehicle id="r11_67" type="mixed" route="r11" depart="148" departPosLat="random"/>
    <vehicle id="r11_68" type="mixed" route="r11" depart="148" departPosLat="random"/>
    <vehicle id="r2_69" type="mixed" route="r2" depart="148" departPosLat="random"/>
    <vehicle id="r3_70" type="mixed" route="r3" depart="149" departPosLat="random"/>
    <vehicle id="r1_71" type="mixed" route="r1" depart="149" departPosLat="random"/>
    <vehicle id="r0_72" type="mixed" route="r0" depart="151" departPosLat="random"/>
    <vehicle id="r3_73" type="mixed" route="r3" depart="152" departPosLat="random"/>
    <vehicle id="r7_74" type="mixed" route="r7" depart="152" departPosLat="random"/>
    <vehicle id="r7_75" type="mixed" route="r7" depart="154" departPosLat="random"/>
    <vehicle id="r9_76" type="mixed" route="r9" depart="155" departPosLat="random"/>
    <vehicle id="r6_77" type="mixed" route="r6" depart="155" departPosLat="random"/>
    <vehicle id="r10_78" type="mixed" route="r10" depart="156" departPosLat="random"/>
    <vehicle id="r4_79" type="mixed" route="r4" depart="157" departPosLat="random"/>
    <vehicle id="r7_80" type="mixed" route="r7" depart="157" departPosLat="random"/>
    <vehicle id="r6_81" type="mixed" route="r6" depart="157" departPosLat="random"/>
    <vehicle id="r6_82" type="mixed" route="r6" depart="160" departPosLat="random"/>
    <vehicle id="r10_83" type="mixed" route="r10" depart="160" departPosLat="random"/>
    <vehicle id="r1_84" type="mixed" route="r1" depart="160" departPosLat="random"/>
    <vehicle id="r8_85" type="mixed" route="r8" depart="163" departPosLat="random"/>
    <vehicle id="r8_86" type="mixed" route="r8" depart="163" departPosLat="random"/>
    <vehicle id="r1_87" type="mixed" route="r1" depart="164" departPosLat="random"/>
    <vehicle id="r0_88" type="mixed" route="r0" depart="164" departPosLat="random"/>
    <vehicle id="r8_89" type="mixed" route="r8" depart="165" departPosLat="random"/>
    <vehicle id="r1_90" type="mixed" route="r1" depart="168" departPosLat="random"/>
    <vehicle id="r5_91" type="mixed" route="r5" depart="169" departPosLat="random"/>
    <vehicle id="r4_92" type="mixed" route="r4" depart="171" departPosLat="random"/>
    <vehicle id="r2_93" type="mixed" route="r2" depart="171" departPosLat="random"/>
    <vehicle id="r11_94" type="mixed" route="r11" depart="172" departPosLat="random"/>
    <vehicle id="r1_95" type="mixed" route="r1" depart="172" departPosLat="random"/>
    <vehicle id="r8_96" type="mixed" route="r8" depart="174" departPosLat="random"/>
    <vehicle id="r10_97" type="mixed" route="r10" depart="174" departPosLat="random"/>
    <vehicle id="r7_98" type="mixed" route="r7" depart="175" departPosLat="random"/>
    <vehicle id="r7_99" type="mixed" route="r7" depart="175" departPosLat="random"/>
    <vehicle id="r11_100" type="mixed" route="r11" depart="176" departPosLat="random"/>
    <vehicle id="r2_101" type="mixed" route="r2" depart="176" departPosLat="random"/>
    <vehicle id="r1_102" type="mixed" route="r1" depart="176" departPosLat="random"/>
    <vehicle id="r7_103" type="mixed" route="r7" depart="177" departPosLat="random"/>
    <vehicle id="r0_104" type="mixed" route="r0" depart="177" departPosLat="random"/>
    <vehicle id="r4_105" type="mixed" route="r4" depart="178" departPosLat="random"/>
    <vehicle id="r6_106" type="mixed" route="r6" depart="178" departPosLat="random"/>
    <vehicle id="r8_107" type="mixed" route="r8" depart="179" departPosLat="random"/>
    <vehicle id="r1_108" type="mixed" route="r1" depart="179" departPosLat="random"/>
    <vehicle id="r9_109" type="mixed" route="r9" depart="179" departPosLat="random"/>
    <vehicle id="r0_110" type="mixed" route="r0" depart="180" departPosLat="random"/>
    <vehicle id="r1_111" type="mixed" route="r1" depart="182" departPosLat="random"/>
    <vehicle id="r10_112" type="mixed" route="r10" depart="184" departPosLat="random"/>
    <vehicle id="r10_113" type="mixed" route="r10" depart="185" departPosLat="random"/>
    <vehicle id="r9_114" type="mixed" route="r9" depart="185" departPosLat="random"/>
    <vehicle id="r5_115" type="mixed" route="r5" depart="185" departPosLat="random"/>
    <vehicle id="r10_116" type="mixed" route="r10" depart="186" departPosLat="random"/>
    <vehicle id="r11_117" type="mixed" route="r11" depart="186" departPosLat="random"/>
    <vehicle id="r10_118" type="mixed" route="r10" depart="190" departPosLat="random"/>
    <vehicle id="r6_119" type="mixed" route="r6" depart="190" departPosLat="random"/>
    <vehicle id="r5_120" type="mixed" route="r5" depart="191" departPosLat="random"/>
    <vehicle id="r3_121" type="mixed" route="r3" depart="192" departPosLat="random"/>
    <vehicle id="r7_122" type="mixed" route="r7" depart="193" departPosLat="random"/>
    <vehicle id="r10_123" type="mixed" route="r10" depart="194" departPosLat="random"/>
    <vehicle id="r11_124" type="mixed" route="r11" depart="194" departPosLat="random"/>
    <vehicle id="r8_125" type="mixed" route="r8" depart="194" departPosLat="random"/>
    <vehicle id="r0_126" type="mixed" route="r0" depart="194" departPosLat="random"/>
    <vehicle id="r7_127" type="mixed" route="r7" depart="195" departPosLat="random"/>
    <vehicle id="r2_128" type="mixed" route="r2" depart="196" departPosLat="random"/>
    <vehicle id="r4_129" type="mixed" route="r4" depart="198" departPosLat="random"/>
    <vehicle id="r3_130" type="mixed" route="r3" depart="199" departPosLat="random"/>
    <vehicle id="r10_131" type="mixed" route="r10" depart="202" departPosLat="random"/>
    <vehicle id="r4_132" type="mixed" route="r4" depart="202" departPosLat="random"/>
    <vehicle id="r6_133" type="mixed" route="r6" depart="203" departPosLat="random"/>
    <vehicle id="r0_134" type="mixed" route="r0" depart="203" departPosLat="random"/>
    <vehicle id="r0_135" type="mixed" route="r0" depart="204" departPosLat="random"/>
    <vehicle id="r10_136" type="mixed" route="r10" depart="204" departPosLat="random"/>
    <vehicle id="r7_137" type="mixed" route="r7" depart="205" departPosLat="random"/>
    <vehicle id="r6_138" type="mixed" route="r6" depart="206" departPosLat="random"/>
    <vehicle id="r0_139" type="mixed" route="r0" depart="206" departPosLat="random"/>
    <vehicle id="r4_140" type="mixed" route="r4" depart="206" departPosLat="random"/>
    <vehicle id="r3_141" type="mixed" route="r3" depart="209" departPosLat="random"/>
    <vehicle id="r10_142" type="mixed" route="r10" depart="209" departPosLat="random"/>
    <vehicle id="r1_143" type="mixed" route="r1" depart="210" departPosLat="random"/>
    <vehicle id="r9_144" type="mixed" route="r9" depart="210" departPosLat="random"/>
    <vehicle id="r9_145" type="mixed" route="r9" depart="211" departPosLat="random"/>
    <vehicle id="r4_146" type="mixed" route="r4" depart="211" departPosLat="random"/>
    <vehicle id="r8_147" type="mixed" route="r8" depart="211" departPosLat="random"/>
    <vehicle id="r8_148" type="mixed" route="r8" depart="212" departPosLat="random"/>
    <vehicle id="r9_149" type="mixed" route="r9" depart="215" departPosLat="random"/>
    <vehicle id="r5_150" type="mixed" route="r5" depart="215" departPosLat="random"/>
    <vehicle id="r2_151" type="mixed" route="r2" depart="216" departPosLat="random"/>
    <vehicle id="r5_152" type="mixed" route="r5" depart="216" departPosLat="random"/>
    <vehicle id="r11_153" type="mixed" route="r11" depart="217" departPosLat="random"/>
    <vehicle id="r8_154" type="mixed" route="r8" depart="218" departPosLat="random"/>
    <vehicle id="r8_155" type="mixed" route="r8" depart="218" departPosLat="random"/>
    <vehicle id="r11_156" type="mixed" route="r11" depart="218" departPosLat="random"/>
    <vehicle id="r2_157" type="mixed" route="r2" depart="219" departPosLat="random"/>
    <vehicle id="r7_158" type="mixed" route="r7" depart="221" departPosLat="random"/>
    <vehicle id="r2_159" type="mixed" route="r2" depart="221" departPosLat="random"/>
    <vehicle id="r11_160" type="mixed" route="r11" depart="221" departPosLat="random"/>
    <vehicle id="r2_161" type="mixed" route="r2" depart="224" departPosLat="random"/>
    <vehicle id="r0_162" type="mixed" route="r0" depart="224" departPosLat="random"/>
    <vehicle id="r4_163" type="mixed" route="r4" depart="224" departPosLat="random"/>
    <vehicle id="r4_164" type="mixed" route="r4" depart="224" departPosLat="random"/>
    <vehicle id="r10_165" type="mixed" route="r10" depart="225" departPosLat="random"/>
    <vehicle id="r5_166" type="mixed" route="r5" depart="226" departPosLat="random"/>
    <vehicle id="r11_167" type="mixed" route="r11" depart="226" departPosLat="random"/>
    <vehicle id="r8_168" type="mixed" route="r8" depart="227" departPosLat="random"/>
    <vehicle id="r9_169" type="mixed" route="r9" depart="227" departPosLat="random"/>
    <vehicle id="r7_170" type="mixed" route="r7" depart="227" departPosLat="random"/>
    <vehicle id="r2_171" type="mixed" route="r2" depart="228" departPosLat="random"/>
    <vehicle id="r5_172" type="mixed" route="r5" depart="228" departPosLat="random"/>
    <vehicle id="r4_173" type="mixed" route="r4" depart="231" departPosLat="random"/>
    <vehicle id="r9_174" type="mixed" route="r9" depart="233" departPosLat="random"/>
    <vehicle id="r3_175" type="mixed" route="r3" depart="233" departPosLat="random"/>
    <vehicle id="r5_176" type="mixed" route="r5" depart="234" departPosLat="random"/>
    <vehicle id="r0_177" type="mixed" route="r0" depart="235" departPosLat="random"/>
    <vehicle id="r9_178" type="mixed" route="r9" depart="236" departPosLat="random"/>
    <vehicle id="r1_179" type="mixed" route="r1" depart="237" departPosLat="random"/>
    <vehicle id="r11_180" type="mixed" route="r11" depart="240" departPosLat="random"/>
    <vehicle id="r6_181" type="mixed" route="r6" depart="242" departPosLat="random"/>
    <vehicle id="r1_182" type="mixed" route="r1" depart="244" departPosLat="random"/>
    <vehicle id="r7_183" type="mixed" route="r7" depart="244" departPosLat="random"/>
    <vehicle id="r9_184" type="mixed" route="r9" depart="245" departPosLat="random"/>
    <vehicle id="r0_185" type="mixed" route="r0" depart="247" departPosLat="random"/>
    <vehicle id="r2_186" type="mixed" route="r2" depart="251" departPosLat="random"/>
    <vehicle id="r4_187" type="mixed" route="r4" depart="252" departPosLat="random"/>
    <vehicle id="r9_188" type="mixed" route="r9" depart="252" departPosLat="random"/>
    <vehicle id="r9_189" type="mixed" route="r9" depart="253" departPosLat="random"/>
    <vehicle id="r11_190" type="mixed" route="r11" depart="254" departPosLat="random"/>
    <vehicle id="r11_191" type="mixed" route="r11" depart="255" departPosLat="random"/>
    <vehicle id="r1_192" type="mixed" route="r1" depart="255" departPosLat="random"/>
    <vehicle id="r10_193" type="mixed" route="r10" depart="255" departPosLat="random"/>
    <vehicle id="r3_194" type="mixed" route="r3" depart="257" departPosLat="random"/>
    <vehicle id="r9_195" type="mixed" route="r9" depart="260" departPosLat="random"/>
    <vehicle id="r9_196" type="mixed" route="r9" depart="260" departPosLat="random"/>
    <vehicle id="r5_197" type="mixed" route="r5" depart="260" departPosLat="random"/>
    <vehicle id="r6_198" type="mixed" route="r6" depart="262" departPosLat="random"/>
    <vehicle id="r2_199" type="mixed" route="r2" depart="262" departPosLat="random"/>
    <vehicle id="r4_200" type="mixed" route="r4" depart="263" departPosLat="random"/>
    <vehicle id="r0_201" type="mixed" route="r0" depart="263" departPosLat="random"/>
    <vehicle id="r10_202" type="mixed" route="r10" depart="263" departPosLat="random"/>
    <vehicle id="r8_203" type="mixed" route="r8" depart="263" departPosLat="random"/>
    <vehicle id="r8_204" type="mixed" route="r8" depart="264" departPosLat="random"/>
    <vehicle id="r3_205" type="mixed" route="r3" depart="266" departPosLat="random"/>
    <vehicle id="r7_206" type="mixed" route="r7" depart="267" departPosLat="random"/>
    <vehicle id="r9_207" type="mixed" route="r9" depart="267" departPosLat="random"/>
    <vehicle id="r0_208" type="mixed" route="r0" depart="267" departPosLat="random"/>
    <vehicle id="r6_209" type="mixed" route="r6" depart="268" departPosLat="random"/>
    <vehicle id="r6_210" type="mixed" route="r6" depart="268" departPosLat="random"/>
    <vehicle id="r5_211" type="mixed" route="r5" depart="269" departPosLat="random"/>
    <vehicle id="r11_212" type="mixed" route="r11" depart="269" departPosLat="random"/>
    <vehicle id="r10_213" type="mixed" route="r10" depart="270" departPosLat="random"/>
    <vehicle id="r8_214" type="mixed" route="r8" depart="271" departPosLat="random"/>
    <vehicle id="r6_215" type="mixed" route="r6" depart="273" departPosLat="random"/>
    <vehicle id="r2_216" type="mixed" route="r2" depart="273" departPosLat="random"/>
    <vehicle id="r0_217" type="mixed" route="r0" depart="273" departPosLat="random"/>
    <vehicle id="r7_218" type="mixed" route="r7" depart="274" departPosLat="random"/>
    <vehicle id="r9_219" type="mixed" route="r9" depart="278" departPosLat="random"/>
    <vehicle id="r7_220" type="mixed" route="r7" depart="280" departPosLat="random"/>
    <vehicle id="r2_221" type="mixed" route="r2" depart="281" departPosLat="random"/>
    <vehicle id="r2_222" type="mixed" route="r2" depart="281" departPosLat="random"/>
    <vehicle id="r9_223" type="mixed" route="r9" depart="283" departPosLat="random"/>
    <vehicle id="r6_224" type="mixed" route="r6" depart="285" departPosLat="random"/>
    <vehicle id="r3_225" type="mixed" route="r3" depart="285" departPosLat="random"/>
    <vehicle id="r9_226" type="mixed" route="r9" depart="286" departPosLat="random"/>
    <vehicle id="r1_227" type="mixed" route="r1" depart="286" departPosLat="random"/>
    <vehicle id="r7_228" type="mixed" route="r7" depart="287" departPosLat="random"/>
    <vehicle id="r6_229" type="mixed" route="r6" depart="287" departPosLat="random"/>
    <vehicle id="r10_230" type="mixed" route="r10" depart="287" departPosLat="random"/>
    <vehicle id="r11_231" type="mixed" route="r11" depart="287" departPosLat="random"/>
    <vehicle id="r0_232" type="mixed" route="r0" depart="287" departPosLat="random"/>
    <vehicle id="r8_233" type="mixed" route="r8" depart="288" departPosLat="random"/>
    <vehicle id="r0_234" type="mixed" route="r0" depart="288" departPosLat="random"/>
    <vehicle id="r6_235" type="mixed" route="r6" depart="289" departPosLat="random"/>
    <vehicle id="r0_236" type="mixed" route="r0" depart="290" departPosLat="random"/>
    <vehicle id="r1_237" type="mixed" route="r1" depart="290" departPosLat="random"/>
    <vehicle id="r9_238" type="mixed" route="r9" depart="290" departPosLat="random"/>
    <vehicle id="r11_239" type="mixed" route="r11" depart="291" departPosLat="random"/>
    <vehicle id="r0_240" type="mixed" route="r0" depart="292" departPosLat="random"/>
    <vehicle id="r4_241" type="mixed" route="r4" depart="292" departPosLat="random"/>
    <vehicle id="r6_242" type="mixed" route="r6" depart="293" departPosLat="random"/>
    <vehicle id="r6_243" type="mixed" route="r6" depart="294" departPosLat="random"/>
    <vehicle id="r7_244" type="mixed" route="r7" depart="295" departPosLat="random"/>
    <vehicle id="r9_245" type="mixed" route="r9" depart="295" departPosLat="random"/>
    <vehicle id="r0_246" type="mixed" route="r0" depart="295" departPosLat="random"/>
    <vehicle id="r6_247" type="mixed" route="r6" depart="299" departPosLat="random"/>
    <vehicle id="r3_248" type="mixed" route="r3" depart="299" departPosLat="random"/>
    <vehicle id="r0_249" type="mixed" route="r0" depart="301" departPosLat="random"/>
    <vehicle id="r0_250" type="mixed" route="r0" depart="301" departPosLat="random"/>
    <vehicle id="r0_251" type="mixed" route="r0" depart="304" departPosLat="random"/>
    <vehicle id="r3_252" type="mixed" route="r3" depart="305" departPosLat="random"/>
    <vehicle id="r0_253" type="mixed" route="r0" depart="306" departPosLat="random"/>
    <vehicle id="r10_254" type="mixed" route="r10" depart="306" departPosLat="random"/>
    <vehicle id="r0_255" type="mixed" route="r0" depart="307" departPosLat="random"/>
    <vehicle id="r4_256" type="mixed" route="r4" depart="309" departPosLat="random"/>
    <vehicle id="r6_257" type="mixed" route="r6" depart="309" departPosLat="random"/>
    <vehicle id="r10_258" type="mixed" route="r10" depart="310" departPosLat="random"/>
    <vehicle id="r10_259" type="mixed" route="r10" depart="310" departPosLat="random"/>
    <vehicle id="r3_260" type="mixed" route="r3" depart="311" departPosLat="random"/>
    <vehicle id="r8_261" type="mixed" route="r8" depart="311" departPosLat="random"/>
    <vehicle id="r11_262" type="mixed" route="r11" depart="312" departPosLat="random"/>
    <vehicle id="r8_263" type="mixed" route="r8" depart="312" departPosLat="random"/>
    <vehicle id="r7_264" type="mixed" route="r7" depart="312" departPosLat="random"/>
    <vehicle id="r6_265" type="mixed" route="r6" depart="312" departPosLat="random"/>
    <vehicle id="r1_266" type="mixed" route="r1" depart="313" departPosLat="random"/>
    <vehicle id="r8_267" type="mixed" route="r8" depart="314" departPosLat="random"/>
    <vehicle id="r10_268" type="mixed" route="r10" depart="314" departPosLat="random"/>
    <vehicle id="r9_269" type="mixed" route="r9" depart="314" departPosLat="random"/>
    <vehicle id="r1_270" type="mixed" route="r1" depart="315" departPosLat="random"/>
    <vehicle id="r1_271" type="mixed" route="r1" depart="316" departPosLat="random"/>
    <vehicle id="r5_272" type="mixed" route="r5" depart="316" departPosLat="random"/>
    <vehicle id="r11_273" type="mixed" route="r11" depart="317" departPosLat="random"/>
    <vehicle id="r9_274" type="mixed" route="r9" depart="319" departPosLat="random"/>
    <vehicle id="r3_275" type="mixed" route="r3" depart="320" departPosLat="random"/>
    <vehicle id="r6_276" type="mixed" route="r6" depart="321" departPosLat="random"/>
    <vehicle id="r3_277" type="mixed" route="r3" depart="321" departPosLat="random"/>
    <vehicle id="r8_278" type="mixed" route="r8" depart="322" departPosLat="random"/>
    <vehicle id="r11_279" type="mixed" route="r11" depart="323" departPosLat="random"/>
    <vehicle id="r8_280" type="mixed" route="r8" depart="323" departPosLat="random"/>
    <vehicle id="r1_281" type="mixed" route="r1" depart="324" departPosLat="random"/>
    <vehicle id="r9_282" type="mixed" route="r9" depart="326" departPosLat="random"/>
    <vehicle id="r4_283" type="mixed" route="r4" depart="326" departPosLat="random"/>
    <vehicle id="r3_284" type="mixed" route="r3" depart="327" departPosLat="random"/>
    <vehicle id="r4_285" type="mixed" route="r4" depart="328" departPosLat="random"/>
    <vehicle id="r2_286" type="mixed" route="r2" depart="328" departPosLat="random"/>
    <vehicle id="r0_287" type="mixed" route="r0" depart="329" departPosLat="random"/>
    <vehicle id="r7_288" type="mixed" route="r7" depart="329" departPosLat="random"/>
    <vehicle id="r1_289" type="mixed" route="r1" depart="330" departPosLat="random"/>
    <vehicle id="r3_290" type="mixed" route="r3" depart="332" departPosLat="random"/>
    <vehicle id="r10_291" type="mixed" route="r10" depart="332" departPosLat="random"/>
    <vehicle id="r8_292" type="mixed" route="r8" depart="332" departPosLat="random"/>
    <vehicle id="r6_293" type="mixed" route="r6" depart="333" departPosLat="random"/>
    <vehicle id="r2_294" type="mixed" route="r2" depart="333" departPosLat="random"/>
    <vehicle id="r7_295" type="mixed" route="r7" depart="333" departPosLat="random"/>
    <vehicle id="r0_296" type="mixed" route="r0" depart="334" departPosLat="random"/>
    <vehicle id="r10_297" type="mixed" route="r10" depart="334" departPosLat="random"/>
    <vehicle id="r11_298" type="mixed" route="r11" depart="336" departPosLat="random"/>
    <vehicle id="r2_299" type="mixed" route="r2" depart="336" departPosLat="random"/>
    <vehicle id="r0_300" type="mixed" route="r0" depart="337" departPosLat="random"/>
    <vehicle id="r10_301" type="mixed" route="r10" depart="338" departPosLat="random"/>
    <vehicle id="r3_302" type="mixed" route="r3" depart="339" departPosLat="random"/>
    <vehicle id="r8_303" type="mixed" route="r8" depart="339" departPosLat="random"/>
    <vehicle id="r2_304" type="mixed" route="r2" depart="339" departPosLat="random"/>
    <vehicle id="r5_305" type="mixed" route="r5" depart="340" departPosLat="random"/>
    <vehicle id="r7_306" type="mixed" route="r7" depart="340" departPosLat="random"/>
    <vehicle id="r3_307" type="mixed" route="r3" depart="340" departPosLat="random"/>
    <vehicle id="r6_308" type="mixed" route="r6" depart="341" departPosLat="random"/>
    <vehicle id="r2_309" type="mixed" route="r2" depart="342" departPosLat="random"/>
    <vehicle id="r11_310" type="mixed" route="r11" depart="343" departPosLat="random"/>
    <vehicle id="r3_311" type="mixed" route="r3" depart="343" departPosLat="random"/>
    <vehicle id="r8_312" type="mixed" route="r8" depart="343" departPosLat="random"/>
    <vehicle id="r0_313" type="mixed" route="r0" depart="343" departPosLat="random"/>
    <vehicle id="r0_314" type="mixed" route="r0" depart="344" departPosLat="random"/>
    <vehicle id="r0_315" type="mixed" route="r0" depart="344" departPosLat="random"/>
    <vehicle id="r10_316" type="mixed" route="r10" depart="344" departPosLat="random"/>
    <vehicle id="r0_317" type="mixed" route="r0" depart="344" departPosLat="random"/>
    <vehicle id="r4_318" type="mixed" route="r4" depart="346" departPosLat="random"/>
    <vehicle id="r0_319" type="mixed" route="r0" depart="348" departPosLat="random"/>
    <vehicle id="r9_320" type="mixed" route="r9" depart="349" departPosLat="random"/>
    <vehicle id="r4_321" type="mixed" route="r4" depart="349" departPosLat="random"/>
    <vehicle id="r11_322" type="mixed" route="r11" depart="350" departPosLat="random"/>
    <vehicle id="r11_323" type="mixed" route="r11" depart="350" departPosLat="random"/>
    <vehicle id="r9_324" type="mixed" route="r9" depart="351" departPosLat="random"/>
    <vehicle id="r9_325" type="mixed" route="r9" depart="351" departPosLat="random"/>
    <vehicle id="r0_326" type="mixed" route="r0" depart="353" departPosLat="random"/>
    <vehicle id="r7_327" type="mixed" route="r7" depart="353" departPosLat="random"/>
    <vehicle id="r3_328" type="mixed" route="r3" depart="353" departPosLat="random"/>
    <vehicle id="r0_329" type="mixed" route="r0" depart="355" departPosLat="random"/>
    <vehicle id="r11_330" type="mixed" route="r11" depart="356" departPosLat="random"/>
    <vehicle id="r11_331" type="mixed" route="r11" depart="356" departPosLat="random"/>
    <vehicle id="r5_332" type="mixed" route="r5" depart="356" departPosLat="random"/>
    <vehicle id="r3_333" type="mixed" route="r3" depart="358" departPosLat="random"/>
    <vehicle id="r3_334" type="mixed" route="r3" depart="359" departPosLat="random"/>
    <vehicle id="r2_335" type="mixed" route="r2" depart="363" departPosLat="random"/>
    <vehicle id="r1_336" type="mixed" route="r1" depart="363" departPosLat="random"/>
    <vehicle id="r7_337" type="mixed" route="r7" depart="363" departPosLat="random"/>
    <vehicle id="r10_338" type="mixed" route="r10" depart="364" departPosLat="random"/>