<routes>
    <vTypeDistribution id="mixed">
        <vType id="car" vClass="passenger" speedDev="0.2" latAlignment="compact" probability="0.6"/>
        <vType id="moped" vClass="moped" speedDev="0.4" latAlignment="compact" probability="0.4"/>
    </vTypeDistribution>
    <route id="r0" edges="51o 1i 2o 52i"/>
    <route id="r1" edges="51o 1i 4o 54i"/>
    <route id="r2" edges="51o 1i 3o 53i"/>
    <route id="r3" edges="54o 4i 3o 53i"/>
    <route id="r4" edges="54o 4i 1o 51i"/>
    <route id="r5" edges="54o 4i 2o 52i"/>
    <route id="r6" edges="52o 2i 1o 51i"/>
    <route id="r7" edges="52o 2i 4o 54i"/>
    <route id="r8" edges="52o 2i 3o 53i"/>
    <route id="r9" edges="53o 3i 4o 54i"/>
    <route id="r10" edges="53o 3i 1o 51i"/>
    <route id="r11" edges="53o 3i 2o 52i"/>
    <vehicle id="r6_0" type="mixed" route="r6" depart="34" departPosLat="random"/>
    <vehicle id="r0_1" type="mixed" route="r0" depart="36" departPosLat="random"/>
    <vehicle id="r4_2" type="mixed" route="r4" depart="37" departPosLat="random"/>
    <vehicle id="r2_3" type="mixed" route="r2" depart="40" departPosLat="random"/>
    <vehicle id="r5_4" type="mixed" route="r5" depart="42" departPosLat="random"/>
    <vehicle id="r5_5" type="mixed" route="r5" depart="48" departPosLat="random"/>
    <vehicle id="r6_6" type="mixed" route="r6" depart="52" departPosLat="random"/>
    <vehicle id="r0_7" type="mixed" route="r0" depart="53" departPosLat="random"/>
    <vehicle id="r0_8" type="mixed" route="r0" depart="53" departPosLat="random"/>
    <vehicle id="r6_9" type="mixed" route="r6" depart="55" departPosLat="random"/>
    <vehicle id="r5_10" type="mixed" route="r5" depart="57" departPosLat="random"/>
    <vehicle id="r9_11" type="mixed" route="r9" depart="57" departPosLat="random"/>
    <vehicle id="r6_12" type="mixed" route="r6" depart="60" departPosLat="random"/>
    <vehicle id="r8_13" type="mixed" route="r8" depart="61" departPosLat="random"/>
    <vehicle id="r5_14" type="mixed" route="r5" depart="62" departPosLat="random"/>
    <vehicle id="r6_15" type="mixed" route="r6" depart="65" departPosLat="random"/>
    <vehicle id="r6_16" type="mixed" route="r6" depart="67" departPosLat="random"/>
    <vehicle id="r6_17" type="mixed" route="r6" depart="68" departPosLat="random"/>
    <vehicle id="r8_18" type="mixed" route="r8" depart="68" departPosLat="random"/>
    <vehicle id="r6_19" type="mixed" route="r6" depart="68" departPosLat="random"/>
    <vehicle id="r3_20" type="mixed" route="r3" depart="71" departPosLat="random"/>
    <vehicle id="r5_21" type="mixed" route="r5" depart="71" departPosLat="random"/>
    <vehicle id="r6_22" type="mixed" route="r6" depart="72" departPosLat="random"/>
    <vehicle id="r7_23" type="mixed" route="r7" depart="73" departPosLat="random"/>
    <vehicle id="r4_24" type="mixed" route="r4" depart="75" departPosLat="random"/>
    <vehicle id="r6_25" type="mixed" route="r6" depart="77" departPosLat="random"/>
    <vehicle id="r1_26" type="mixed" route="r1" depart="78" departPosLat="random"/>
    <vehicle id="r0_27" type="mixed" route="r0" depart="79" departPosLat="random"/>
    <vehicle id="r6_28" type="mixed" route="r6" depart="80" departPosLat="random"/>
    <vehicle id="r7_29" type="mixed" route="r7" depart="80" departPosLat="random"/>
    <vehicle id="r2_30" type="mixed" route="r2" depart="80" departPosLat="random"/>
    <vehicle id="r6_31" type="mixed" route="r6" depart="82" departPosLat="random"/>
    <vehicle id="r4_32" type="mixed" route="r4" depart="82" departPosLat="random"/>
    <vehicle id="r7_33" type="mixed" route="r7" depart="82" departPosLat="random"/>
    <vehicle id="r9_34" type="mixed" route="r9" depart="83" departPosLat="random"/>
    <vehicle id="r6_35" type="mixed" route="r6" depart="85" departPosLat="random"/>
    <vehicle id="r8_36" type="mixed" route="r8" depart="86" departPosLat="random"/>
    <vehicle id="r6_37" type="mixed" route="r6" depart="88" departPosLat="random"/>
    <vehicle id="r9_38" type="mixed" route="r9" depart="89" departPosLat="random"/>
    <vehicle id="r2_39" type="mixed" route="r2" depart="89" departPosLat="random"/>
    <vehicle id="r4_40" type="mixed" route="r4" depart="92" departPosLat="random"/>
    <vehicle id="r5_41" type="mixed" route="r5" depart="93" departPosLat="random"/>
    <vehicle id="r5_42" type="mixed" route="r5" depart="94" departPosLat="random"/>
    <vehicle id="r7_43" type="mixed" route="r7" depart="96" departPosLat="random"/>
    <vehicle id="r6_44" type="mixed" route="r6" depart="96" departPosLat="random"/>
    <vehicle id="r10_45" type="mixed" route="r10" depart="97" departPosLat="random"/>
    <vehicle id="r0_46" type="mixed" route="r0" depart="97" departPosLat="random"/>
    <vehicle id="r11_47" type="mixed" route="r11" depart="97" departPosLat="random"/>
    <vehicle id="r0_48" type="mixed" route="r0" depart="98" departPosLat="random"/>
    <vehicle id="r6_49" type="mixed" route="r6" depart="100" departPosLat="random"/>
    <vehicle id="r5_50" type="mixed" route="r5" depart="100" departPosLat="random"/>
    <vehicle id="r6_51" type="mixed" route="r6" depart="102" departPosLat="random"/>
    <vehicle id="r5_52" type="mixed" route="r5" depart="102" departPosLat="random"/>
    <vehicle id="r3_53" type="mixed" route="r3" depart="102" departPosLat="random"/>
    <vehicle id="r0_54" type="mixed" route="r0" depart="104" departPosLat="random"/>
    <vehicle id="r4_55" type="mixed" route="r4" depart="105" departPosLat="random"/>
    <vehicle id="r3_56" type="mixed" route="r3" depart="108" departPosLat="random"/>
    <vehicle id="r0_57" type="mixed" route="r0" depart="108" departPosLat="random"/>
    <vehicle id="r6_58" type="mixed" route="r6" depart="108" departPosLat="random"/>
    <vehicle id="r4_59" type="mixed" route="r4" depart="108" departPosLat="random"/>
    <vehicle id="r0_60" type="mixed" route="r0" depart="108" departPosLat="random"/>
    <vehicle id="r10_61" type="mixed" route="r10" depart="109" departPosLat="random"/>
    <vehicle id="r2_62" type="mixed" route="r2" depart="109" departPosLat="random"/>
    <vehicle id="r10_63" type="mixed" route="r10" depart="110" departPosLat="random"/>
    <vehicle id="r5_64" type="mixed" route="r5" depart="115" departPosLat="random"/>
    <vehicle id="r0_65" type="mixed" route="r0" depart="115" departPosLat="random"/>
    <vehicle id="r6_66" type="mixed" route="r6" depart="115" departPosLat="random"/>
    <vehicle id="r6_67" type="mixed" route="r6" depart="115" departPosLat="random"/>
    <vehicle id="r11_68" type="mixed" route="r11" depart="119" departPosLat="random"/>
    <vehicle id="r6_69" type="mixed" route="r6" depart="120" departPosLat="random"/>
    <vehicle id="r5_70" type="mixed" route="r5" depart="120" departPosLat="random"/>
    <vehicle id="r6_71" type="mixed" route="r6" depart="122" departPosLat="random"/>
    <vehicle id="r0_72" type="mixed" route="r0" depart="122" departPosLat="random"/>
    <vehicle id="r4_73" type="mixed" route="r4" depart="122" departPosLat="random"/>
    <vehicle id="r4_74" type="mixed" route="r4" depart="126" departPosLat="random"/>
    <vehicle id="r2_75" type="mixed" route="r2" depart="128" departPosLat="random"/>
    <vehicle id="r6_76" type="mixed" route="r6" depart="128" departPosLat="random"/>
    <vehicle id="r9_77" type="mixed" route="r9" depart="130" departPosLat="random"/>
    <vehicle id="r9_78" type="mixed" route="r9" depart="130" departPosLat="random"/>
    <vehicle id="r6_79" type="mixed" route="r6" depart="130" departPosLat="random"/>
    <vehicle id="r0_80" type="mixed" route="r0" depart="131" departPosLat="random"/>
    <vehicle id="r6_81" type="mixed" route="r6" depart="132" departPosLat="random"/>
    <vehicle id="r5_82" type="mixed" route="r5" depart="132" departPosLat="random"/>
    <vehicle id="r6_83" type="mixed" route="r6" depart="133" departPosLat="random"/>
    <vehicle id="r7_84" type="mixed" route="r7" depart="134" departPosLat="random"/>
    <vehicle id="r7_85" type="mixed" route="r7" depart="135" departPosLat="random"/>
    <vehicle id="r3_86" type="mixed" route="r3" depart="136" departPosLat="random"/>
    <vehicle id="r0_87" type="mixed" route="r0" depart="137" departPosLat="random"/>
    <vehicle id="r11_88" type="mixed" route="r11" depart="138" departPosLat="random"/>
    <vehicle id="r6_89" type="mixed" route="r6" depart="139" departPosLat="random"/>
    <vehicle id="r4_90" type="mixed" route="r4" depart="139" departPosLat="random"/>
    <vehicle id="r9_91" type="mixed" route="r9" depart="140" departPosLat="random"/>
    <vehicle id="r0_92" type="mixed" route="r0" depart="140" departPosLat="random"/>
    <vehicle id="r8_93" type="mixed" route="r8" depart="141" departPosLat="random"/>
    <vehicle id="r0_94" type="mixed" route="r0" depart="141" departPosLat="random"/>
    <vehicle id="r0_95" type="mixed" route="r0" depart="142" departPosLat="random"/>
    <vehicle id="r0_96" type="mixed" route="r0" depart="142" departPosLat="random"/>
    <vehicle id="r6_97" type="mixed" route="r6" depart="143" departPosLat="random"/>
    <vehicle id="r0_98" type="mixed" route="r0" depart="145" departPosLat="random"/>
    <vehicle id="r5_99" type="mixed" route="r5" depart="145" departPosLat="random"/>
    <vehicle id="r11_100" type="mixed" route="r11" depart="146" departPosLat="random"/>
    <vehicle id="r9_101" type="mixed" route="r9" depart="146" departPosLat="random"/>
    <vehicle id="r6_102" type="mixed" route="r6" depart="147" departPosLat="random"/>
    <vehicle id="r6_103" type="mixed" route="r6" depart="148" departPosLat="random"/>
    <vehicle id="r7_104" type="mixed" route="r7" depart="148" departPosLat="random"/>
    <vehicle id="r6_105" type="mixed" route="r6" depart="148" departPosLat="random"/>
    <vehicle id="r5_106" type="mixed" route="r5" depart="149" departPosLat="random"/>
    <vehicle id="r0_107" type="mixed" route="r0" depart="149" departPosLat="random"/>
    <vehicle id="r2_108" type="mixed" route="r2" depart="149" departPosLat="random"/>
    <vehicle id="r3_109" type="mixed" route="r3" depart="149" departPosLat="random"/>
    <vehicle id="r6_110" type="mixed" route="r6" depart="151" departPosLat="random"/>
    <vehicle id="r10_111" type="mixed" route="r10" depart="151" departPosLat="random"/>
    <vehicle id="r10_112" type="mixed" route="r10" depart="152" departPosLat="random"/>
    <vehicle id="r0_113" type="mixed" route="r0" depart="152" departPosLat="random"/>
    <vehicle id="r1_114" type="mixed" route="r1" depart="153" departPosLat="random"/>
    <vehicle id="r0_115" type="mixed" route="r0" depart="154" departPosLat="random"/>
    <vehicle id="r6_116" type="mixed" route="r6" depart="155" departPosLat="random"/>
    <vehicle id="r3_117" type="mixed" route="r3" depart="155" departPosLat="random"/>
    <vehicle id="r9_118" type="mixed" route="r9" depart="155" departPosLat="random"/>
    <vehicle id="r6_119" type="mixed" route="r6" depart="155" departPosLat="random"/>
    <vehicle id="r6_120" type="mixed" route="r6" depart="156" departPosLat="random"/>
    <vehicle id="r0_121" type="mixed" route="r0" depart="157" departPosLat="random"/>
    <vehicle id="r1_122" type="mixed" route="r1" depart="157" departPosLat="random"/>
    <vehicle id="r6_123" type="mixed" route="r6" depart="157" departPosLat="random"/>
    <vehicle id="r0_124" type="mixed" route="r0" depart="160" departPosLat="random"/>
    <vehicle id="r2_125" type="mixed" route="r2" depart="160" departPosLat="random"/>
    <vehicle id="r3_126" type="mixed" route="r3" depart="160" departPosLat="random"/>
    <vehicle id="r2_127" type="mixed" route="r2" depart="162" departPosLat="random"/>
    <vehicle id="r6_128" type="mixed" route="r6" depart="163" departPosLat="random"/>
    <vehicle id="r7_129" type="mixed" route="r7" depart="163" departPosLat="random"/>
    <vehicle id="r8_130" type="mixed" route="r8" depart="164" departPosLat="random"/>
    <vehicle id="r9_131" type="mixed" route="r9" depart="164" departPosLat="random"/>
    <vehicle id="r6_132" type="mixed" route="r6" depart="164" departPosLat="random"/>
    <vehicle id="r9_133" type="mixed" route="r9" depart="165" departPosLat="random"/>
    <vehicle id="r0_134" type="mixed" route="r0" depart="166" departPosLat="random"/>
    <vehicle id="r11_135" type="mixed" route="r11" depart="168" departPosLat="random"/>
    <vehicle id="r9_136" type="mixed" route="r9" depart="168" departPosLat="random"/>
    <vehicle id="r3_137" type="mixed" route="r3" depart="168" departPosLat="random"/>
    <vehicle id="r0_138" type="mixed" route="r0" depart="169" departPosLat="random"/>
    <vehicle id="r3_139" type="mixed" route="r3" depart="171" departPosLat="random"/>
    <vehicle id="r0_140" type="mixed" route="r0" depart="171" departPosLat="random"/>
    <vehicle id="r4_141" type="mixed" route="r4" depart="171" departPosLat="random"/>
    <vehicle id="r7_142" type="mixed" route="r7" depart="172" departPosLat="random"/>
    <vehicle id="r11_143" type="mixed" route="r11" depart="172" departPosLat="random"/>
    <vehicle id="r6_144" type="mixed" route="r6" depart="173" departPosLat="random"/>
    <vehicle id="r6_145" type="mixed" route="r6" depart="174" departPosLat="random"/>
    <vehicle id="r0_146" type="mixed" route="r0" depart="174" departPosLat="random"/>
    <vehicle id="r1_147" type="mixed" route="r1" depart="175" departPosLat="random"/>
    <vehicle id="r0_148" type="mixed" route="r0" depart="175" departPosLat="random"/>
    <vehicle id="r0_149" type="mixed" route="r0" depart="176" departPosLat="random"/>
    <vehicle id="r0_150" type="mixed" route="r0" depart="176" departPosLat="random"/>
    <vehicle id="r0_151" type="mixed" route="r0" depart="176" departPosLat="random"/>
    <vehicle id="r3_152" type="mixed" route="r3" depart="177" departPosLat="random"/>
    <vehicle id="r4_153" type="mixed" route="r4" depart="177" departPosLat="random"/>
    <vehicle id="r7_154" type="mixed" route="r7" depart="177" departPosLat="random"/>
    <vehicle id="r2_155" type="mixed" route="r2" depart="178" departPosLat="random"/>
    <vehicle id="r2_156" type="mixed" route="r2" depart="178" departPosLat="random"/>
    <vehicle id="r1_157" type="mixed" route="r1" depart="179" departPosLat="random"/>
    <vehicle id="r0_158" type="mixed" route="r0" depart="179" departPosLat="random"/>
    <vehicle id="r10_159" type="mixed" route="r10" depart="179" departPosLat="random"/>
    <vehicle id="r8_160" type="mixed" route="r8" depart="179" departPosLat="random"/>
    <vehicle id="r6_161" type="mixed" route="r6" depart="180" departPosLat="random"/>
    <vehicle id="r5_162" type="mixed" route="r5" depart="182" departPosLat="random"/>
    <vehicle id="r6_163" type="mixed" route="r6" depart="182" departPosLat="random"/>
    <vehicle id="r11_164" type="mixed" route="r11" depart="184" departPosLat="random"/>
    <vehicle id="r2_165" type="mixed" route="r2" depart="185" departPosLat="random"/>
    <vehicle id="r5_166" type="mixed" route="r5" depart="185" departPosLat="random"/>
    <vehicle id="r7_167" type="mixed" route="r7" depart="185" departPosLat="random"/>
    <vehicle id="r7_168" type="mixed" route="r7" depart="186" departPosLat="random"/>
    <vehicle id="r6_169" type="mixed" route="r6" depart="186" departPosLat="random"/>
    <vehicle id="r6_170" type="mixed" route="r6" depart="186" departPosLat="random"/>
    <vehicle id="r8_171" type="mixed" route="r8" depart="186" departPosLat="random"/>
    <vehicle id="r4_172" type="mixed" route="r4" depart="187" departPosLat="random"/>
    <vehicle id="r8_173" type="mixed" route="r8" depart="190" departPosLat="random"/>
    <vehicle id="r6_174" type="mixed" route="r6" depart="190" departPosLat="random"/>
    <vehicle id="r0_175" type="mixed" route="r0" depart="191" departPosLat="random"/>
    <vehicle id="r0_176" type="mixed" route="r0" depart="192" departPosLat="random"/>
    <vehicle id="r0_177" type="mixed" route="r0" depart="192" departPosLat="random"/>
    <vehicle id="r0_178" type="mixed" route="r0" depart="192" departPosLat="random"/>
    <vehicle id="r7_179" type="mixed" route="r7" depart="193" departPosLat="random"/>
    <vehicle id="r0_180" type="mixed" route="r0" depart="194" departPosLat="random"/>
    <vehicle id="r10_181" type="mixed" route="r10" depart="194" departPosLat="random"/>
    <vehicle id="r0_182" type="mixed" route="r0" depart="194" departPosLat="random"/>
    <vehicle id="r10_183" type="mixed" route="r10" depart="194" departPosLat="random"/>
    <vehicle id="r9_184" type="mixed" route="r9" depart="194" departPosLat="random"/>
    <vehicle id="r9_185" type="mixed" route="r9" depart="194" departPosLat="random"/>
    <vehicle id="r7_186" type="mixed" route="r7" depart="195" departPosLat="random"/>
    <vehicle id="r0_187" type="mixed" route="r0" depart="195" departPosLat="random"/>
    <vehicle id="r5_188" type="mixed" route="r5" depart="196" departPosLat="random"/>
    <vehicle id="r6_189" type="mixed" route="r6" depart="198" departPosLat="random"/>
    <vehicle id="r0_190" type="mixed" route="r0" depart="199" departPosLat="random"/>
    <vehicle id="r5_191" type="mixed" route="r5" depart="201" departPosLat="random"/>
    <vehicle id="r10_192" type="mixed" route="r10" depart="202" departPosLat="random"/>
    <vehicle id="r0_193" type="mixed" route="r0" depart="202" departPosLat="random"/>
    <vehicle id="r1_194" type="mixed" route="r1" depart="203" departPosLat="random"/>
    <vehicle id="r2_195" type="mixed" route="r2" depart="203" departPosLat="random"/>
    <vehicle id="r0_196" type="mixed" route="r0" depart="203" departPosLat="random"/>
    <vehicle id="r6_197" type="mixed" route="r6" depart="204" departPosLat="random"/>
    <vehicle id="r8_198" type="mixed" route="r8" depart="204" departPosLat="random"/>
    <vehicle id="r1_199" type="mixed" route="r1" depart="204" departPosLat="random"/>
    <vehicle id="r8_200" type="mixed" route="r8" depart="205" departPosLat="random"/>
    <vehicle id="r10_201" type="mixed" route="r10" depart="205" departPosLat="random"/>
    <vehicle id="r6_202" type="mixed" route="r6" depart="206" departPosLat="random"/>
    <vehicle id="r0_203" type="mixed" route="r0" depart="206" departPosLat="random"/>
    <vehicle id="r0_204" type="mixed" route="r0" depart="206" departPosLat="random"/>
    <vehicle id="r5_205" type="mixed" route="r5" depart="206" departPosLat="random"/>
    <vehicle id="r6_206" type="mixed" route="r6" depart="208" departPosLat="random"/>
    <vehicle id="r6_207" type="mixed" route="r6" depart="209" departPosLat="random"/>
    <vehicle id="r0_208" type="mixed" route="r0" depart="209" departPosLat="random"/>
    <vehicle id="r0_209" type="mixed" route="r0" depart="209" departPosLat="random"/>
    <vehicle id="r6_210" type="mixed" route="r6" depart="210" departPosLat="random"/>
    <vehicle id="r4_211" type="mixed" route="r4" depart="210" departPosLat="random"/>
    <vehicle id="r4_212" type="mixed" route="r4" depart="211" departPosLat="random"/>
    <vehicle id="r0_213" type="mixed" route="r0" depart="211" departPosLat="random"/>
    <vehicle id="r0_214" type="mixed" route="r0" depart="211" departPosLat="random"/>
    <vehicle id="r6_215" type="mixed" route="r6" depart="212" departPosLat="random"/>
    <vehicle id="r5_216" type="mixed" route="r5" depart="213" departPosLat="random"/>
    <vehicle id="r8_217" type="mixed" route="r8" depart="214" departPosLat="random"/>
    <vehicle id="r1_218" type="mixed" route="r1" depart="215" departPosLat="random"/>
    <vehicle id="r2_219" type="mixed" route="r2" depart="215" departPosLat="random"/>
    <vehicle id="r7_220" type="mixed" route="r7" depart="216" departPosLat="random"/>
    <vehicle id="r11_221" type="mixed" route="r11" depart="216" departPosLat="random"/>
    <vehicle id="r7_222" type="mixed" route="r7" depart="217" departPosLat="random"/>
    <vehicle id="r6_223" type="mixed" route="r6" depart="217" departPosLat="random"/>
    <vehicle id="r6_224" type="mixed" route="r6" depart="218" departPosLat="random"/>
    <vehicle id="r0_225" type="mixed" route="r0" depart="218" departPosLat="random"/>
    <vehicle id="r0_226" type="mixed" route="r0" depart="218" departPosLat="random"/>
    <vehicle id="r0_227" type="mixed" route="r0" depart="219" departPosLat="random"/>
    <vehicle id="r9_228" type="mixed" route="r9" depart="219" departPosLat="random"/>
    <vehicle id="r6_229" type="mixed" route="r6" depart="220" departPosLat="random"/>
    <vehicle id="r0_230" type="mixed" route="r0" depart="220" departPosLat="random"/>
    <vehicle id="r7_231" type="mixed" route="r7" depart="220" departPosLat="random"/>
    <vehicle id="r0_232" type="mixed" route="r0" depart="221" departPosLat="random"/>
    <vehicle id="r6_233" type="mixed" route="r6" depart="221" departPosLat="random"/>
    <vehicle id="r0_234" type="mixed" route="r0" depart="221" departPosLat="random"/>
    <vehicle id="r6_235" type="mixed" route="r6" depart="221" departPosLat="random"/>
    <vehicle id="r0_236" type="mixed" route="r0" depart="222" departPosLat="random"/>
    <vehicle id="r0_237" type="mixed" route="r0" depart="223" departPosLat="random"/>
    <vehicle id="r6_238" type="mixed" route="r6" depart="224" departPosLat="random"/>
    <vehicle id="r1_239" type="mixed" route="r1" depart="224" departPosLat="random"/>
    <vehicle id="r5_240" type="mixed" route="r5" depart="224" departPosLat="random"/>
    <vehicle id="r6_241" type="mixed" route="r6" depart="224" departPosLat="random"/>
    <vehicle id="r4_242" type="mixed" route="r4" depart="224" departPosLat="random"/>
    <vehicle id="r10_243" type="mixed" route="r10" depart="224" departPosLat="random"/>
    <vehicle id="r11_244" type="mixed" route="r11" depart="225" departPosLat="random"/>
    <vehicle id="r8_245" type="mixed" route="r8" depart="226" departPosLat="random"/>
    <vehicle id="r0_246" type="mixed" route="r0" depart="226" departPosLat="random"/>
    <vehicle id="r11_247" type="mixed" route="r11" depart="226" departPosLat="random"/>
    <vehicle id="r0_248" type="mixed" route="r0" depart="227" departPosLat="random"/>
    <vehicle id="r0_249" type="mixed" route="r0" depart="227" departPosLat="random"/>
    <vehicle id="r6_250" type="mixed" route="r6" depart="227" departPosLat="random"/>
    <vehicle id="r6_251" type="mixed" route="r6" depart="227" departPosLat="random"/>
    <vehicle id="r4_252" type="mixed" route="r4" depart="228" departPosLat="random"/>
    <vehicle id="r0_253" type="mixed" route="r0" depart="228" departPosLat="random"/>
    <vehicle id="r10_254" type="mixed" route="r10" depart="230" departPosLat="random"/>
    <vehicle id="r3_255" type="mixed" route="r3" depart="231" departPosLat="random"/>
    <vehicle id="r6_256" type="mixed" route="r6" depart="233" departPosLat="random"/>
    <vehicle id="r0_257" type="mixed" route="r0" depart="233" departPosLat="random"/>
    <vehicle id="r3_258" type="mixed" route="r3" depart="234" departPosLat="random"/>
    <vehicle id="r1_259" type="mixed" route="r1" depart="235" departPosLat="random"/>
    <vehicle id="r9_260" type="mixed" route="r9" depart="236" departPosLat="random"/>
    <vehicle id="r0_261" type="mixed" route="r0" depart="237" departPosLat="random"/>
    <vehicle id="r1_262" type="mixed" route="r1" depart="239" departPosLat="random"/>
    <vehicle id="r2_263" type="mixed" route="r2" depart="240" departPosLat="random"/>
    <vehicle id="r2_264" type="mixed" route="r2" depart="240" departPosLat="random"/>
    <vehicle id="r11_265" type="mixed" route="r11" depart="240" departPosLat="random"/>
    <vehicle id="r2_266" type="mixed" route="r2" depart="241" departPosLat="random"/>
    <vehicle id="r6_267" type="mixed" route="r6" depart="242" departPosLat="random"/>
    <vehicle id="r0_268" type="mixed" route="r0" depart="243" departPosLat="random"/>
    <vehicle id="r3_269" type="mixed" route="r3" depart="244" departPosLat="random"/>
    <vehicle id="r8_270" type="mixed" route="r8" depart="244" departPosLat="random"/>
    <vehicle id="r5_271" type="mixed" route="r5" depart="245" departPosLat="random"/>
    <vehicle id="r0_272" type="mixed" route="r0" depart="246" departPosLat="random"/>
    <vehicle id="r6_273" type="mixed" route="r6" depart="247" departPosLat="random"/>
    <vehicle id="r0_274" type="mixed" route="r0" depart="248" departPosLat="random"/>
    <vehicle id="r7_275" type="mixed" route="r7" depart="249" departPosLat="random"/>
    <vehicle id="r0_276" type="mixed" route="r0" depart="250" departPosLat="random"/>
    <vehicle id="r2_277" type="mixed" route="r2" depart="250" departPosLat="random"/>
    <vehicle id="r0_278" type="mixed" route="r0" depart="250" departPosLat="random"/>
    <vehicle id="r1_279" type="mixed" route="r1" depart="251" departPosLat="random"/>
    <vehicle id="r6_280" type="mixed" route="r6" depart="252" departPosLat="random"/>
    <vehicle id="r3_281" type="mixed" route="r3" depart="252" departPosLat="random"/>
    <vehicle id="r0_282" type="mixed" route="r0" depart="252" departPosLat="random"/>
    <vehicle id="r6_283" type="mixed" route="r6" depart="252" departPosLat="random"/>
    <vehicle id="r0_284" type="mixed" route="r0" depart="252" departPosLat="random"/>
    <vehicle id="r0_285" type="mixed" route="r0" depart="253" departPosLat="random"/>
    <vehicle id="r6_286" type="mixed" route="r6" depart="254" departPosLat="random"/>
    <vehicle id="r3_287" type="mixed" route="r3" depart="255" departPosLat="random"/>
    <vehicle id="r9_288" type="mixed" route="r9" depart="255" departPosLat="random"/>
    <vehicle id="r6_289" type="mixed" route="r6" depart="255" departPosLat="random"/>
    <vehicle id="r7_290" type="mixed" route="r7" depart="256" departPosLat="random"/>
    <vehicle id="r0_291" type="mixed" route="r0" depart="256" departPosLat="random"/>
    <vehicle id="r1_292" type="mixed" route="r1" depart="256" departPosLat="random"/>
    <vehicle id="r0_293" type="mixed" route="r0" depart="257" departPosLat="random"/>
    <vehicle id="r0_294" type="mixed" route="r0" depart="257" departPosLat="random"/>
    <vehicle id="r11_295" type="mixed" route="r11" depart="257" departPosLat="random"/>
    <vehicle id="r2_296" type="mixed" route="r2" depart="258" departPosLat="random"/>
    <vehicle id="r0_297" type="mixed" route="r0" depart="260" departPosLat="random"/>
    <vehicle id="r4_298" type="mixed" route="r4" depart="260" departPosLat="random"/>
    <vehicle id="r5_299" type="mixed" route="r5" depart="260" departPosLat="random"/>
    <vehicle id="r11_300" type="mixed" route="r11" depart="261" departPosLat="random"/>
    <vehicle id="r0_301" type="mixed" route="r0" depart="261" departPosLat="random"/>
    <vehicle id="r9_302" type="mixed" route="r9" depart="262" departPosLat="random"/>
    <vehicle id="r6_303" type="mixed" route="r6" depart="262" departPosLat="random"/>
    <vehicle id="r0_304" type="mixed" route="r0" depart="263" departPosLat="random"/>
    <vehicle id="r5_305" type="mixed" route="r5" depart="263" departPosLat="random"/>
    <vehicle id="r7_306" type="mixed" route="r7" depart="263" departPosLat="random"/>
    <vehicle id="r7_307" type="mixed" route="r7" depart="263" departPosLat="random"/>
    <vehicle id="r9_308" type="mixed" route="r9" depart="264" departPosLat="random"/>
    <vehicle id="r0_309" type="mixed" route="r0" depart="264" departPosLat="random"/>
    <vehicle id="r5_310" type="mixed" route="r5" depart="265" departPosLat="random"/>
    <vehicle id="r0_311" type="mixed" route="r0" depart="266" departPosLat="random"/>
    <vehicle id="r1_312" type="mixed" route="r1" depart="266" departPosLat="random"/>
    <vehicle id="r7_313" type="mixed" route="r7" depart="267" departPosLat="random"/>
    <vehicle id="r6_314" type="mixed" route="r6" depart="267" departPosLat="random"/>
    <vehicle id="r7_315" type="mixed" route="r7" depart="267" departPosLat="random"/>
    <vehicle id="r0_316" type="mixed" route="r0" depart="268" departPosLat="random"/>
    <vehicle id="r6_317" type="mixed" route="r6" depart="268" departPosLat="random"/>
    <vehicle id="r6_318" type="mixed" route="r6" depart="268" departPosLat="random"/>
    <vehicle id="r6_319" type="mixed" route="r6" depart="269" departPosLat="random"/>
    <vehicle id="r9_320" type="mixed" route="r9" depart="269" departPosLat="random"/>
    <vehicle id="r10_321" type="mixed" route="r10" depart="270" departPosLat="random"/>
    <vehicle id="r9_322" type="mixed" route="r9" depart="271" departPosLat="random"/>
    <vehicle id="r4_323" type="mixed" route="r4" depart="273" departPosLat="random"/>
    <vehicle id="r11_324" type="mixed" route="r11" depart="273" departPosLat="random"/>
    <vehicle id="r6_325" type="mixed" route="r6" depart="273" departPosLat="random"/>
    <vehicle id="r6_326" type="mixed" route="r6" depart="273" departPosLat="random"/>
    <vehicle id="r9_327" type="mixed" route="r9" depart="274" departPosLat="random"/>
    <vehicle id="r0_328" type="mixed" route="r0" depart="274" departPosLat="random"/>
    <vehicle id="r0_329" type="mixed" route="r0" depart="274" departPosLat="random"/>
    <vehicle id="r8_330" type="mixed" route="r8" depart="274" departPosLat="random"/>
    <vehicle id="r6_331" type="mixed" route="r6" depart="276" departPosLat="random"/>
    <vehicle id="r6_332" type="mixed" route="r6" depart="278" departPosLat="random"/>
    <vehicle id="r9_333" type="mixed" route="r9" depart="278" departPosLat="random"/>
    <vehicle id="r9_334" type="mixed" route="r9" depart="279" departPosLat="random"/>
    <vehicle id="r1_335" type="mixed" route="r1" depart="279" departPosLat="random"/>
    <vehicle id="r6_336" type="mixed" route="r6" depart="280" departPosLat="random"/>
    <vehicle id="r7_337" type="mixed" route="r7" depart="280" departPosLat="random"/>
    <vehicle id="r0_338" type="mixed" route="r0" depart="281" departPosLat="random"/>
    <vehicle id="r6_339" type="mixed" route="r6" depart="281" departPosLat="random"/>