<routes>
    <vTypeDistribution id="mixed">
        <vType id="car" vClass="passenger" speedDev="0.2" latAlignment="compact" probability="0.6"/>
        <vType id="moped" vClass="moped" speedDev="0.4" latAlignment="compact" probability="0.4"/>
    </vTypeDistribution>
    <route id="r0" edges="51o 1i 2o 52i"/>
    <route id="r1" edges="51o 1i 4o 54i"/>
    <route id="r2" edges="51o 1i 3o 53i"/>
    <route id="r3" edges="54o 4i 3o 53i"/>
    <route id="r4" edges="54o 4i 1o 51i"/>
    <route id="r5" edges="54o 4i 2o 52i"/>
    <route id="r6" edges="52o 2i 1o 51i"/>
    <route id="r7" edges="52o 2i 4o 54i"/>
    <route id="r8" edges="52o 2i 3o 53i"/>
    <route id="r9" edges="53o 3i 4o 54i"/>
    <route id="r10" edges="53o 3i 1o 51i"/>
    <route id="r11" edges="53o 3i 2o 52i"/>
    <vehicle id="r3_0" type="mixed" route="r3" depart="12" departPosLat="random"/>
    <vehicle id="r6_1" type="mixed" route="r6" depart="13" departPosLat="random"/>
    <vehicle id="r3_2" type="mixed" route="r3" depart="19" departPosLat="random"/>
    <vehicle id="r4_3" type="mixed" route="r4" depart="23" departPosLat="random"/>
    <vehicle id="r7_4" type="mixed" route="r7" depart="26" departPosLat="random"/>
    <vehicle id="r4_5" type="mixed" route="r4" depart="31" departPosLat="random"/>
    <vehicle id="r5_6" type="mixed" route="r5" depart="34" departPosLat="random"/>
    <vehicle id="r7_7" type="mixed" route="r7" depart="34" departPosLat="random"/>
    <vehicle id="r7_8" type="mixed" route="r7" depart="36" departPosLat="random"/>
    <vehicle id="r8_9" type="mixed" route="r8" depart="36" departPosLat="random"/>
    <vehicle id="r3_10" type="mixed" route="r3" depart="44" departPosLat="random"/>
    <vehicle id="r1_11" type="mixed" route="r1" depart="50" departPosLat="random"/>
    <vehicle id="r1_12" type="mixed" route="r1" depart="53" departPosLat="random"/>
    <vehicle id="r5_13" type="mixed" route="r5" depart="54" departPosLat="random"/>
    <vehicle id="r1_14" type="mixed" route="r1" depart="54" departPosLat="random"/>
    <vehicle id="r2_15" type="mixed" route="r2" depart="55" departPosLat="random"/>
    <vehicle id="r8_16" type="mixed" route="r8" depart="55" departPosLat="random"/>
    <vehicle id="r3_17" type="mixed" route="r3" depart="58" departPosLat="random"/>
    <vehicle id="r9_18" type="mixed" route="r9" depart="58" departPosLat="random"/>
    <vehicle id="r1_19" type="mixed" route="r1" depart="60" departPosLat="random"/>
    <vehicle id="r5_20" type="mixed" route="r5" depart="63" departPosLat="random"/>
    <vehicle id="r1_21" type="mixed" route="r1" depart="64" departPosLat="random"/>
    <vehicle id="r9_22" type="mixed" route="r9" depart="64" departPosLat="random"/>
    <vehicle id="r6_23" type="mixed" route="r6" depart="64" departPosLat="random"/>
    <vehicle id="r2_24" type="mixed" route="r2" depart="65" departPosLat="random"/>
    <vehicle id="r6_25" type="mixed" route="r6" depart="66" departPosLat="random"/>
    <vehicle id="r3_26" type="mixed" route="r3" depart="68" departPosLat="random"/>
    <vehicle id="r8_27" type="mixed" route="r8" depart="68" departPosLat="random"/>
    <vehicle id="r2_28" type="mixed" route="r2" depart="69" departPosLat="random"/>
    <vehicle id="r4_29" type="mixed" route="r4" depart="69" departPosLat="random"/>
    <vehicle id="r3_30" type="mixed" route="r3" depart="70" departPosLat="random"/>
    <vehicle id="r5_31" type="mixed" route="r5" depart="70" departPosLat="random"/>
    <vehicle id="r9_32" type="mixed" route="r9" depart="71" departPosLat="random"/>
    <vehicle id="r5_33" type="mixed" route="r5" depart="71" departPosLat="random"/>
    <vehicle id="r8_34" type="mixed" route="r8" depart="72" departPosLat="random"/>
    <vehicle id="r10_35" type="mixed" route="r10" depart="73" departPosLat="random"/>
    <vehicle id="r6_36" type="mixed" route="r6" depart="73" departPosLat="random"/>
    <vehicle id="r0_37" type="mixed" route="r0" depart="78" departPosLat="random"/>
    <vehicle id="r11_38" type="mixed" route="r11" depart="78" departPosLat="random"/>
    <vehicle id="r3_39" type="mixed" route="r3" depart="79" departPosLat="random"/>
    <vehicle id="r11_40" type="mixed" route="r11" depart="79" departPosLat="random"/>
    <vehicle id="r7_41" type="mixed" route="r7" depart="79" departPosLat="random"/>
    <vehicle id="r9_42" type="mixed" route="r9" depart="80" departPosLat="random"/>
    <vehicle id="r9_43" type="mixed" route="r9" depart="81" departPosLat="random"/>
    <vehicle id="r4_44" type="mixed" route="r4" depart="86" departPosLat="random"/>
    <vehicle id="r2_45" type="mixed" route="r2" depart="86" departPosLat="random"/>
    <vehicle id="r8_46" type="mixed" route="r8" depart="87" departPosLat="random"/>
    <vehicle id="r7_47" type="mixed" route="r7" depart="88" departPosLat="random"/>
    <vehicle id="r6_48" type="mixed" route="r6" depart="88" departPosLat="random"/>
    <vehicle id="r8_49" type="mixed" route="r8" depart="88" departPosLat="random"/>
    <vehicle id="r2_50" type="mixed" route="r2" depart="88" departPosLat="random"/>
    <vehicle id="r1_51" type="mixed" route="r1" depart="90" departPosLat="random"/>
    <vehicle id="r0_52" type="mixed" route="r0" depart="92" departPosLat="random"/>
    <vehicle id="r2_53" type="mixed" route="r2" depart="92" departPosLat="random"/>
    <vehicle id="r2_54" type="mixed" route="r2" depart="95" departPosLat="random"/>
    <vehicle id="r2_55" type="mixed" route="r2" depart="95" departPosLat="random"/>
    <vehicle id="r6_56" type="mixed" route="r6" depart="95" departPosLat="random"/>
    <vehicle id="r4_57" type="mixed" route="r4" depart="96" departPosLat="random"/>
    <vehicle id="r3_58" type="mixed" route="r3" depart="97" departPosLat="random"/>
    <vehicle id="r11_59" type="mixed" route="r11" depart="97" departPosLat="random"/>
    <vehicle id="r10_60" type="mixed" route="r10" depart="98" departPosLat="random"/>
    <vehicle id="r3_61" type="mixed" route="r3" depart="99" departPosLat="random"/>
    <vehicle id="r10_62" type="mixed" route="r10" depart="100" departPosLat="random"/>
    <vehicle id="r10_63" type="mixed" route="r10" depart="101" departPosLat="random"/>
    <vehicle id="r7_64" type="mixed" route="r7" depart="101" departPosLat="random"/>
    <vehicle id="r3_65" type="mixed" route="r3" depart="103" departPosLat="random"/>
    <vehicle id="r9_66" type="mixed" route="r9" depart="104" departPosLat="random"/>
    <vehicle id="r5_67" type="mixed" route="r5" depart="105" departPosLat="random"/>
    <vehicle id="r7_68" type="mixed" route="r7" depart="105" departPosLat="random"/>
    <vehicle id="r1_69" type="mixed" route="r1" depart="106" departPosLat="random"/>
    <vehicle id="r8_70" type="mixed" route="r8" depart="107" departPosLat="random"/>
    <vehicle id="r2_71" type="mixed" route="r2" depart="107" departPosLat="random"/>
    <vehicle id="r3_72" type="mixed" route="r3" depart="109" departPosLat="random"/>
    <vehicle id="r6_73" type="mixed" route="r6" depart="109" departPosLat="random"/>
    <vehicle id="r9_74" type="mixed" route="r9" depart="112" departPosLat="random"/>
    <vehicle id="r3_75" type="mixed" route="r3" depart="112" departPosLat="random"/>
    <vehicle id="r3_76" type="mixed" route="r3" depart="113" departPosLat="random"/>
    <vehicle id="r1_77" type="mixed" route="r1" depart="114" departPosLat="random"/>
    <vehicle id="r6_78" type="mixed" route="r6" depart="114" departPosLat="random"/>
    <vehicle id="r9_79" type="mixed" route="r9" depart="114" departPosLat="random"/>
    <vehicle id="r1_80" type="mixed" route="r1" depart="117" departPosLat="random"/>
    <vehicle id="r0_81" type="mixed" route="r0" depart="118" departPosLat="random"/>
    <vehicle id="r11_82" type="mixed" route="r11" depart="118" departPosLat="random"/>
    <vehicle id="r7_83" type="mixed" route="r7" depart="119" departPosLat="random"/>
    <vehicle id="r7_84" type="mixed" route="r7" depart="121" departPosLat="random"/>
    <vehicle id="r10_85" type="mixed" route="r10" depart="121" departPosLat="random"/>
    <vehicle id="r0_86" type="mixed" route="r0" depart="122" departPosLat="random"/>
    <vehicle id="r2_87" type="mixed" route="r2" depart="122" departPosLat="random"/>
    <vehicle id="r1_88" type="mixed" route="r1" depart="123" departPosLat="random"/>
    <vehicle id="r4_89" type="mixed" route="r4" depart="123" departPosLat="random"/>
    <vehicle id="r10_90" type="mixed" route="r10" depart="124" departPosLat="random"/>
    <vehicle id="r10_91" type="mixed" route="r10" depart="124" departPosLat="random"/>
    <vehicle id="r2_92" type="mixed" route="r2" depart="124" departPosLat="random"/>
    <vehicle id="r11_93" type="mixed" route="r11" depart="125" departPosLat="random"/>
    <vehicle id="r6_94" type="mixed" route="r6" depart="126" departPosLat="random"/>
    <vehicle id="r2_95" type="mixed" route="r2" depart="127" departPosLat="random"/>
    <vehicle id="r2_96" type="mixed" route="r2" depart="127" departPosLat="random"/>
    <vehicle id="r5_97" type="mixed" route="r5" depart="127" departPosLat="random"/>
    <vehicle id="r7_98" type="mixed" route="r7" depart="128" departPosLat="random"/>
    <vehicle id="r7_99" type="mixed" route="r7" depart="128" departPosLat="random"/>
    <vehicle id="r7_100" type="mixed" route="r7" depart="129" departPosLat="random"/>
    <vehicle id="r6_101" type="mixed" route="r6" depart="129" departPosLat="random"/>
    <vehicle id="r9_102" type="mixed" route="r9" depart="130" departPosLat="random"/>
    <vehicle id="r8_103" type="mixed" route="r8" depart="130" departPosLat="random"/>
    <vehicle id="r2_104" type="mixed" route="r2" depart="130" departPosLat="random"/>
    <vehicle id="r9_105" type="mixed" route="r9" depart="131" departPosLat="random"/>
    <vehicle id="r7_106" type="mixed" route="r7" depart="131" departPosLat="random"/>
    <vehicle id="r5_107" type="mixed" route="r5" depart="132" departPosLat="random"/>
    <vehicle id="r1_108" type="mixed" route="r1" depart="133" departPosLat="random"/>
    <vehicle id="r4_109" type="mixed" route="r4" depart="133" departPosLat="random"/>
    <vehicle id="r0_110" type="mixed" route="r0" depart="134" departPosLat="random"/>
    <vehicle id="r3_111" type="mixed" route="r3" depart="134" departPosLat="random"/>
    <vehicle id="r7_112" type="mixed" route="r7" depart="134" departPosLat="random"/>
    <vehicle id="r0_113" type="mixed" route="r0" depart="135" departPosLat="random"/>
    <vehicle id="r10_114" type="mixed" route="r10" depart="136" departPosLat="random"/>
    <vehicle id="r6_115" type="mixed" route="r6" depart="136" departPosLat="random"/>
    <vehicle id="r3_116" type="mixed" route="r3" depart="140" departPosLat="random"/>
    <vehicle id="r0_117" type="mixed" route="r0" depart="140" departPosLat="random"/>
    <vehicle id="r7_118" type="mixed" route="r7" depart="141" departPosLat="random"/>
    <vehicle id="r1_119" type="mixed" route="r1" depart="141" departPosLat="random"/>
    <vehicle id="r8_120" type="mixed" route="r8" depart="143" departPosLat="random"/>
    <vehicle id="r0_121" type="mixed" route="r0" depart="144" departPosLat="random"/>
    <vehicle id="r1_122" type="mixed" route="r1" depart="145" departPosLat="random"/>
    <vehicle id="r11_123" type="mixed" route="r11" depart="145" departPosLat="random"/>
    <vehicle id="r4_124" type="mixed" route="r4" depart="146" departPosLat="random"/>
    <vehicle id="r7_125" type="mixed" route="r7" depart="147" departPosLat="random"/>
    <vehicle id="r9_126" type="mixed" route="r9" depart="148" departPosLat="random"/>
    <vehicle id="r9_127" type="mixed" route="r9" depart="148" departPosLat="random"/>
    <vehicle id="r2_128" type="mixed" route="r2" depart="149" departPosLat="random"/>
    <vehicle id="r11_129" type="mixed" route="r11" depart="150" departPosLat="random"/>
    <vehicle id="r1_130" type="mixed" route="r1" depart="151" departPosLat="random"/>
    <vehicle id="r8_131" type="mixed" route="r8" depart="153" departPosLat="random"/>
    <vehicle id="r0_132" type="mixed" route="r0" depart="153" departPosLat="random"/>
    <vehicle id="r11_133" type="mixed" route="r11" depart="154" departPosLat="random"/>
    <vehicle id="r9_134" type="mixed" route="r9" depart="157" departPosLat="random"/>
    <vehicle id="r11_135" type="mixed" route="r11" depart="159" departPosLat="random"/>
    <vehicle id="r5_136" type="mixed" route="r5" depart="159" departPosLat="random"/>
    <vehicle id="r0_137" type="mixed" route="r0" depart="160" departPosLat="random"/>
    <vehicle id="r3_138" type="mixed" route="r3" depart="160" departPosLat="random"/>
    <vehicle id="r5_139" type="mixed" route="r5" depart="160" departPosLat="random"/>
    <vehicle id="r7_140" type="mixed" route="r7" depart="160" departPosLat="random"/>
    <vehicle id="r0_141" type="mixed" route="r0" depart="160" departPosLat="random"/>
    <vehicle id="r6_142" type="mixed" route="r6" depart="160" departPosLat="random"/>
    <vehicle id="r6_143" type="mixed" route="r6" depart="160" departPosLat="random"/>
    <vehicle id="r11_144" type="mixed" route="r11" depart="161" departPosLat="random"/>
    <vehicle id="r0_145" type="mixed" route="r0" depart="162" departPosLat="random"/>
    <vehicle id="r7_146" type="mixed" route="r7" depart="162" departPosLat="random"/>
    <vehicle id="r0_147" type="mixed" route="r0" depart="162" departPosLat="random"/>
    <vehicle id="r4_148" type="mixed" route="r4" depart="162" departPosLat="random"/>
    <vehicle id="r8_149" type="mixed" route="r8" depart="162" departPosLat="random"/>
    <vehicle id="r2_150" type="mixed" route="r2" depart="163" departPosLat="random"/>
    <vehicle id="r10_151" type="mixed" route="r10" depart="163" departPosLat="random"/>
    <vehicle id="r7_152" type="mixed" route="r7" depart="163" departPosLat="random"/>
    <vehicle id="r8_153" type="mixed" route="r8" depart="164" departPosLat="random"/>
    <vehicle id="r8_154" type="mixed" route="r8" depart="164" departPosLat="random"/>
    <vehicle id="r10_155" type="mixed" route="r10" depart="164" departPosLat="random"/>
    <vehicle id="r0_156" type="mixed" route="r0" depart="164" departPosLat="random"/>
    <vehicle id="r11_157" type="mixed" route="r11" depart="164" departPosLat="random"/>
    <vehicle id="r4_158" type="mixed" route="r4" depart="165" departPosLat="random"/>
    <vehicle id="r3_159" type="mixed" route="r3" depart="165" departPosLat="random"/>
    <vehicle id="r0_160" type="mixed" route="r0" depart="166" departPosLat="random"/>
    <vehicle id="r1_161" type="mixed" route="r1" depart="166" departPosLat="random"/>
    <vehicle id="r4_162" type="mixed" route="r4" depart="166" departPosLat="random"/>
    <vehicle id="r0_163" type="mixed" route="r0" depart="166" departPosLat="random"/>
    <vehicle id="r0_164" type="mixed" route="r0" depart="167" departPosLat="random"/>
    <vehicle id="r1_165" type="mixed" route="r1" depart="168" departPosLat="random"/>
    <vehicle id="r1_166" type="mixed" route="r1" depart="168" departPosLat="random"/>
    <vehicle id="r11_167" type="mixed" route="r11" depart="168" departPosLat="random"/>
    <vehicle id="r5_168" type="mixed" route="r5" depart="169" departPosLat="random"/>
    <vehicle id="r8_169" type="mixed" route="r8" depart="169" departPosLat="random"/>
    <vehicle id="r7_170" type="mixed" route="r7" depart="169" departPosLat="random"/>
    <vehicle id="r7_171" type="mixed" route="r7" depart="170" departPosLat="random"/>
    <vehicle id="r0_172" type="mixed" route="r0" depart="171" departPosLat="random"/>
    <vehicle id="r2_173" type="mixed" route="r2" depart="171" departPosLat="random"/>
    <vehicle id="r7_174" type="mixed" route="r7" depart="171" departPosLat="random"/>
    <vehicle id="r2_175" type="mixed" route="r2" depart="171" departPosLat="random"/>
    <vehicle id="r11_176" type="mixed" route="r11" depart="172" departPosLat="random"/>
    <vehicle id="r10_177" type="mixed" route="r10" depart="173" departPosLat="random"/>
    <vehicle id="r6_178" type="mixed" route="r6" depart="173" departPosLat="random"/>
    <vehicle id="r7_179" type="mixed" route="r7" depart="175" departPosLat="random"/>
    <vehicle id="r10_180" type="mixed" route="r10" depart="175" departPosLat="random"/>
    <vehicle id="r6_181" type="mixed" route="r6" depart="175" departPosLat="random"/>
    <vehicle id="r8_182" type="mixed" route="r8" depart="175" departPosLat="random"/>
    <vehicle id="r8_183" type="mixed" route="r8" depart="175" departPosLat="random"/>
    <vehicle id="r9_184" type="mixed" route="r9" depart="176" departPosLat="random"/>
    <vehicle id="r0_185" type="mixed" route="r0" depart="177" departPosLat="random"/>
    <vehicle id="r5_186" type="mixed" route="r5" depart="177" departPosLat="random"/>
    <vehicle id="r10_187" type="mixed" route="r10" depart="177" departPosLat="random"/>
    <vehicle id="r3_188" type="mixed" route="r3" depart="177" departPosLat="random"/>
    <vehicle id="r0_189" type="mixed" route="r0" depart="177" departPosLat="random"/>
    <vehicle id="r11_190" type="mixed" route="r11" depart="177" departPosLat="random"/>
    <vehicle id="r11_191" type="mixed" route="r11" depart="177" departPosLat="random"/>
    <vehicle id="r5_192" type="mixed" route="r5" depart="178" departPosLat="random"/>
    <vehicle id="r2_193" type="mixed" route="r2" depart="178" departPosLat="random"/>
    <vehicle id="r11_194" type="mixed" route="r11" depart="178" departPosLat="random"/>
    <vehicle id="r10_195" type="mixed" route="r10" depart="179" departPosLat="random"/>
    <vehicle id="r10_196" type="mixed" route="r10" depart="179" departPosLat="random"/>
    <vehicle id="r5_197" type="mixed" route="r5" depart="179" departPosLat="random"/>
    <vehicle id="r6_198" type="mixed" route="r6" depart="180" departPosLat="random"/>
    <vehicle id="r8_199" type="mixed" route="r8" depart="182" departPosLat="random"/>
    <vehicle id="r8_200" type="mixed" route="r8" depart="184" departPosLat="random"/>
    <vehicle id="r4_201" type="mixed" route="r4" depart="185" departPosLat="random"/>
    <vehicle id="r9_202" type="mixed" route="r9" depart="186" departPosLat="random"/>
    <vehicle id="r10_203" type="mixed" route="r10" depart="186" departPosLat="random"/>
    <vehicle id="r0_204" type="mixed" route="r0" depart="186" departPosLat="random"/>
    <vehicle id="r6_205" type="mixed" route="r6" depart="187" departPosLat="random"/>
    <vehicle id="r7_206" type="mixed" route="r7" depart="188" departPosLat="random"/>
    <vehicle id="r3_207" type="mixed" route="r3" depart="188" departPosLat="random"/>
    <vehicle id="r9_208" type="mixed" route="r9" depart="188" departPosLat="random"/>
    <vehicle id="r8_209" type="mixed" route="r8" depart="188" departPosLat="random"/>
    <vehicle id="r6_210" type="mixed" route="r6" depart="188" departPosLat="random"/>
    <vehicle id="r4_211" type="mixed" route="r4" depart="188" departPosLat="random"/>
    <vehicle id="r6_212" type="mixed" route="r6" depart="188" departPosLat="random"/>
    <vehicle id="r11_213" type="mixed" route="r11" depart="189" departPosLat="random"/>
    <vehicle id="r9_214" type="mixed" route="r9" depart="189" departPosLat="random"/>
    <vehicle id="r9_215" type="mixed" route="r9" depart="190" departPosLat="random"/>
    <vehicle id="r3_216" type="mixed" route="r3" depart="191" departPosLat="random"/>
    <vehicle id="r1_217" type="mixed" route="r1" depart="191" departPosLat="random"/>
    <vehicle id="r9_218" type="mixed" route="r9" depart="192" departPosLat="random"/>
    <vehicle id="r1_219" type="mixed" route="r1" depart="193" departPosLat="random"/>
    <vehicle id="r1_220" type="mixed" route="r1" depart="193" departPosLat="random"/>
    <vehicle id="r4_221" type="mixed" route="r4" depart="194" departPosLat="random"/>
    <vehicle id="r7_222" type="mixed" route="r7" depart="194" departPosLat="random"/>
    <vehicle id="r7_223" type="mixed" route="r7" depart="194" departPosLat="random"/>
    <vehicle id="r3_224" type="mixed" route="r3" depart="195" departPosLat="random"/>
    <vehicle id="r8_225" type="mixed" route="r8" depart="195" departPosLat="random"/>
    <vehicle id="r7_226" type="mixed" route="r7" depart="195" departPosLat="random"/>
    <vehicle id="r1_227" type="mixed" route="r1" depart="196" departPosLat="random"/>
    <vehicle id="r7_228" type="mixed" route="r7" depart="197" departPosLat="random"/>
    <vehicle id="r1_229" type="mixed" route="r1" depart="198" departPosLat="random"/>
    <vehicle id="r4_230" type="mixed" route="r4" depart="199" departPosLat="random"/>
    <vehicle id="r4_231" type="mixed" route="r4" depart="200" departPosLat="random"/>
    <vehicle id="r8_232" type="mixed" route="r8" depart="200" departPosLat="random"/>
    <vehicle id="r1_233" type="mixed" route="r1" depart="200" departPosLat="random"/>
    <vehicle id="r9_234" type="mixed" route="r9" depart="200" departPosLat="random"/>
    <vehicle id="r8_235" type="mixed" route="r8" depart="200" departPosLat="random"/>
    <vehicle id="r11_236" type="mixed" route="r11" depart="200" departPosLat="random"/>
    <vehicle id="r4_237" type="mixed" route="r4" depart="201" departPosLat="random"/>
    <vehicle id="r9_238" type="mixed" route="r9" depart="202" departPosLat="random"/>
    <vehicle id="r2_239" type="mixed" route="r2" depart="202" departPosLat="random"/>
    <vehicle id="r6_240" type="mixed" route="r6" depart="203" departPosLat="random"/>
    <vehicle id="r4_241" type="mixed" route="r4" depart="203" departPosLat="random"/>
    <vehicle id="r11_242" type="mixed" route="r11" depart="203" departPosLat="random"/>
    <vehicle id="r10_243" type="mixed" route="r10" depart="204" departPosLat="random"/>
    <vehicle id="r2_244" type="mixed" route="r2" depart="206" departPosLat="random"/>
    <vehicle id="r9_245" type="mixed" route="r9" depart="206" departPosLat="random"/>
    <vehicle id="r5_246" type="mixed" route="r5" depart="208" departPosLat="random"/>
    <vehicle id="r11_247" type="mixed" route="r11" depart="208" departPosLat="random"/>
    <vehicle id="r9_248" type="mixed" route="r9" depart="208" departPosLat="random"/>
    <vehicle id="r4_249" type="mixed" route="r4" depart="209" departPosLat="random"/>
    <vehicle id="r9_250" type="mixed" route="r9" depart="209" departPosLat="random"/>
    <vehicle id="r4_251" type="mixed" route="r4" depart="209" departPosLat="random"/>
    <vehicle id="r11_252" type="mixed" route="r11" depart="209" departPosLat="random"/>
    <vehicle id="r4_253" type="mixed" route="r4" depart="210" departPosLat="random"/>
    <vehicle id="r9_254" type="mixed" route="r9" depart="210" departPosLat="random"/>
    <vehicle id="r8_255" type="mixed" route="r8" depart="210" departPosLat="random"/>
    <vehicle id="r3_256" type="mixed" route="r3" depart="211" departPosLat="random"/>
    <vehicle id="r2_257" type="mixed" route="r2" depart="211" departPosLat="random"/>
    <vehicle id="r3_258" type="mixed" route="r3" depart="211" departPosLat="random"/>
    <vehicle id="r3_259" type="mixed" route="r3" depart="212" departPosLat="random"/>
    <vehicle id="r7_260" type="mixed" route="r7" depart="213" departPosLat="random"/>
    <vehicle id="r5_261" type="mixed" route="r5" depart="214" departPosLat="random"/>
    <vehicle id="r6_262" type="mixed" route="r6" depart="215" departPosLat="random"/>
    <vehicle id="r1_263" type="mixed" route="r1" depart="215" departPosLat="random"/>
    <vehicle id="r4_264" type="mixed" route="r4" depart="215" departPosLat="random"/>
    <vehicle id="r0_265" type="mixed" route="r0" depart="215" departPosLat="random"/>
    <vehicle id="r8_266" type="mixed" route="r8" depart="216" departPosLat="random"/>
    <vehicle id="r6_267" type="mixed" route="r6" depart="217" departPosLat="random"/>
    <vehicle id="r3_268" type="mixed" route="r3" depart="217" departPosLat="random"/>
    <vehicle id="r9_269" type="mixed" route="r9" depart="218" departPosLat="random"/>
    <vehicle id="r6_270" type="mixed" route="r6" depart="219" departPosLat="random"/>
    <vehicle id="r4_271" type="mixed" route="r4" depart="219" departPosLat="random"/>
    <vehicle id="r5_272" type="mixed" route="r5" depart="220" departPosLat="random"/>
    <vehicle id="r9_273" type="mixed" route="r9" depart="220" departPosLat="random"/>
    <vehicle id="r7_274" type="mixed" route="r7" depart="221" departPosLat="random"/>
    <vehicle id="r2_275" type="mixed" route="r2" depart="222" departPosLat="random"/>
    <vehicle id="r10_276" type="mixed" route="r10" depart="222" departPosLat="random"/>
    <vehicle id="r5_277" type="mixed" route="r5" depart="223" departPosLat="random"/>
    <vehicle id="r11_278" type="mixed" route="r11" depart="224" departPosLat="random"/>
    <vehicle id="r0_279" type="mixed" route="r0" depart="225" departPosLat="random"/>
    <vehicle id="r3_280" type="mixed" route="r3" depart="225" departPosLat="random"/>
    <vehicle id="r10_281" type="mixed" route="r10" depart="225" departPosLat="random"/>
    <vehicle id="r10_282" type="mixed" route="r10" depart="226" departPosLat="random"/>
    <vehicle id="r2_283" type="mixed" route="r2" depart="226" departPosLat="random"/>
    <vehicle id="r7_284" type="mixed" route="r7" depart="226" departPosLat="random"/>
    <vehicle id="r0_285" type="mixed" route="r0" depart="227" departPosLat="random"/>
    <vehicle id="r9_286" type="mixed" route="r9" depart="227" departPosLat="random"/>
    <vehicle id="r5_287" type="mixed" route="r5" depart="227" departPosLat="random"/>
    <vehicle id="r9_288" type="mixed" route="r9" depart="227" departPosLat="random"/>
    <vehicle id="r11_289" type="mixed" route="r11" depart="228" departPosLat="random"/>
    <vehicle id="r1_290" type="mixed" route="r1" depart="229" departPosLat="random"/>
    <vehicle id="r7_291" type="mixed" route="r7" depart="230" departPosLat="random"/>
    <vehicle id="r3_292" type="mixed" route="r3" depart="232" departPosLat="random"/>
    <vehicle id="r4_293" type="mixed" route="r4" depart="232" departPosLat="random"/>
    <vehicle id="r3_294" type="mixed" route="r3" depart="234" departPosLat="random"/>
    <vehicle id="r6_295" type="mixed" route="r6" depart="234" departPosLat="random"/>
    <vehicle id="r1_296" type="mixed" route="r1" depart="234" departPosLat="random"/>
    <vehicle id="r0_297" type="mixed" route="r0" depart="234" departPosLat="random"/>
    <vehicle id="r2_298" type="mixed" route="r2" depart="235" departPosLat="random"/>
    <vehicle id="r3_299" type="mixed" route="r3" depart="236" departPosLat="random"/>
    <vehicle id="r11_300" type="mixed" route="r11" depart="236" departPosLat="random"/>
    <vehicle id="r7_301" type="mixed" route="r7" depart="236" departPosLat="random"/>
    <vehicle id="r6_302" type="mixed" route="r6" depart="236" departPosLat="random"/>
    <vehicle id="r3_303" type="mixed" route="r3" depart="237" departPosLat="random"/>
    <vehicle id="r2_304" type="mixed" route="r2" depart="238" departPosLat="random"/>
    <vehicle id="r7_305" type="mixed" route="r7" depart="239" departPosLat="random"/>
    <vehicle id="r11_306" type="mixed" route="r11" depart="239" departPosLat="random"/>
    <vehicle id="r11_307" type="mixed" route="r11" depart="241" departPosLat="random"/>
    <vehicle id="r7_308" type="mixed" route="r7" depart="242" departPosLat="random"/>
    <vehicle id="r7_309" type="mixed" route="r7" depart="242" departPosLat="random"/>
    <vehicle id="r4_310" type="mixed" route="r4" depart="243" departPosLat="random"/>
    <vehicle id="r3_311" type="mixed" route="r3" depart="243" departPosLat="random"/>
    <vehicle id="r5_312" type="mixed" route="r5" depart="243" departPosLat="random"/>
    <vehicle id="r10_313" type="mixed" route="r10" depart="243" departPosLat="random"/>
    <vehicle id="r1_314" type="mixed" route="r1" depart="244" departPosLat="random"/>
    <vehicle id="r2_315" type="mixed" route="r2" depart="244" departPosLat="random"/>
    <vehicle id="r6_316" type="mixed" route="r6" depart="245" departPosLat="random"/>
    <vehicle id="r11_317" type="mixed" route="r11" depart="245" departPosLat="random"/>
    <vehicle id="r6_318" type="mixed" route="r6" depart="246" departPosLat="random"/>
    <vehicle id="r1_319" type="mixed" route="r1" depart="246" departPosLat="random"/>
    <vehicle id="r4_320" type="mixed" route="r4" depart="247" departPosLat="random"/>
    <vehicle id="r3_321" type="mixed" route="r3" depart="247" departPosLat="random"/>
    <vehicle id="r3_322" type="mixed" route="r3" depart="247" departPosLat="random"/>
    <vehicle id="r4_323" type="mixed" route="r4" depart="248" departPosLat="random"/>
    <vehicle id="r4_324" type="mixed" route="r4" depart="249" departPosLat="random"/>
    <vehicle id="r1_325" type="mixed" route="r1" depart="249" departPosLat="random"/>
    <vehicle id="r10_326" type="mixed" route="r10" depart="250" departPosLat="random"/>
    <vehicle id="r8_327" type="mixed" route="r8" depart="250" departPosLat="random"/>
    <vehicle id="r1_328" type="mixed" route="r1" depart="250" departPosLat="random"/>
    <vehicle id="r9_329" type="mixed" route="r9" depart="251" departPosLat="random"/>
    <vehicle id="r2_330" type="mixed" route="r2" depart="251" departPosLat="random"/>
    <vehicle id="r0_331" type="mixed" route="r0" depart="252" departPosLat="random"/>
    <vehicle id="r5_332" type="mixed" route="r5" depart="252" departPosLat="random"/>
    <vehicle id="r2_333" type="mixed" route="r2" depart="252" departPosLat="random"/>
    <vehicle id="r10_334" type="mixed" route="r10" depart="254" departPosLat="random"/>
    <vehicle id="r6_335" type="mixed" route="r6" depart="254" departPosLat="random"/>