<?xml version="1.0" encoding="UTF-8"?>

<!-- generated on 2025-09-05 02:17:25 by Eclipse SUMO netconvert Version 1.20.0
<configuration xmlns:xsi="http://www.w3.org/2001/XMLSchema-instance" xsi:noNamespaceSchemaLocation="http://sumo.dlr.de/xsd/netconvertConfiguration.xsd">

    <input>
        <node-files value="nodes.nod.xml"/>
        <edge-files value="edges.edg.xml"/>
        <connection-files value="connections.conn.xml"/>
    </input>

    <output>
        <output-file value="intersection.net.xml"/>
    </output>

    <processing>
        <lefthand value="true"/>
    </processing>

</configuration>
-->

<net version="1.20" junctionCornerDetail="5" lefthand="true" limitTurnSpeed="5.50" xmlns:xsi="http://www.w3.org/2001/XMLSchema-instance" xsi:noNamespaceSchemaLocation="http://sumo.dlr.de/xsd/net_file.xsd">

    <location netOffset="200.00,200.00" convBoundary="0.00,-0.00,400.00,400.00" origBoundary="-200.00,-200.00,200.00,200.00" projParameter="!"/>

    <edge id=":C_0" function="internal">
        <lane id=":C_0_0" index="0" speed="13.33" length="6.78" shape="188.80,183.20 191.23,189.53"/>
    </edge>
    <edge id=":C_1" function="internal">
        <lane id=":C_1_0" index="0" speed="13.90" length="33.60" shape="192.00,183.20 192.00,216.80"/>
        <lane id=":C_1_1" index="1" speed="13.90" length="33.60" shape="195.20,183.20 195.20,216.80"/>
    </edge>
    <edge id=":C_3" function="internal">
        <lane id=":C_3_0" index="0" speed="10.36" length="5.01" shape="198.40,183.20 197.69,188.16"/>
    </edge>
    <edge id=":C_16" function="internal">
        <lane id=":C_16_0" index="0" speed="13.33" length="34.43" shape="191.23,189.53 191.93,191.33 199.47,200.53 208.67,208.08 216.80,211.20"/>
    </edge>
    <edge id=":C_17" function="internal">
        <lane id=":C_17_0" index="0" speed="10.36" length="19.50" shape="197.69,188.16 197.45,189.85 194.60,194.60 189.85,197.45 183.20,198.40"/>
    </edge>
    <edge id=":C_4" function="internal">
        <lane id=":C_4_0" index="0" speed="13.33" length="24.23" shape="216.80,188.80 208.67,191.93 199.47,199.47 197.17,202.27"/>
    </edge>
    <edge id=":C_5" function="internal">
        <lane id=":C_5_0" index="0" speed="13.90" length="33.60" shape="216.80,192.00 183.20,192.00"/>
        <lane id=":C_5_1" index="1" speed="13.90" length="33.60" shape="216.80,195.20 183.20,195.20"/>
    </edge>
    <edge id=":C_7" function="internal">
        <lane id=":C_7_0" index="0" speed="10.36" length="5.01" shape="216.80,198.40 211.84,197.69"/>
    </edge>
    <edge id=":C_18" function="internal">
        <lane id=":C_18_0" index="0" speed="13.33" length="16.99" shape="197.17,202.27 191.93,208.67 188.80,216.80"/>
    </edge>
    <edge id=":C_19" function="internal">
        <lane id=":C_19_0" index="0" speed="10.36" length="19.50" shape="211.84,197.69 210.15,197.45 205.40,194.60 202.55,189.85 201.60,183.20"/>
    </edge>
    <edge id=":C_8" function="internal">
        <lane id=":C_8_0" index="0" speed="13.33" length="6.78" shape="211.20,216.80 208.77,210.47"/>
    </edge>
    <edge id=":C_9" function="internal">
        <lane id=":C_9_0" index="0" speed="13.90" length="33.60" shape="208.00,216.80 208.00,183.20"/>
        <lane id=":C_9_1" index="1" speed="13.90" length="33.60" shape="204.80,216.80 204.80,183.20"/>
    </edge>
    <edge id=":C_11" function="internal">
        <lane id=":C_11_0" index="0" speed="10.36" length="5.01" shape="201.60,216.80 202.31,211.84"/>
    </edge>
    <edge id=":C_20" function="internal">
        <lane id=":C_20_0" index="0" speed="13.33" length="34.43" shape="208.77,210.47 208.08,208.67 200.53,199.47 191.33,191.93 183.20,188.80"/>
    </edge>
    <edge id=":C_21" function="internal">
        <lane id=":C_21_0" index="0" speed="10.36" length="19.50" shape="202.31,211.84 202.55,210.15 205.40,205.40 210.15,202.55 216.80,201.60"/>
    </edge>
    <edge id=":C_12" function="internal">
        <lane id=":C_12_0" index="0" speed="13.33" length="24.23" shape="183.20,211.20 191.33,208.08 200.53,200.53 202.83,197.73"/>
    </edge>
    <edge id=":C_13" function="internal">
        <lane id=":C_13_0" index="0" speed="13.90" length="33.60" shape="183.20,208.00 216.80,208.00"/>
        <lane id=":C_13_1" index="1" speed="13.90" length="33.60" shape="183.20,204.80 216.80,204.80"/>
    </edge>
    <edge id=":C_15" function="internal">
        <lane id=":C_15_0" index="0" speed="10.36" length="5.01" shape="183.20,201.60 188.16,202.31"/>
    </edge>
    <edge id=":C_22" function="internal">
        <lane id=":C_22_0" index="0" speed="13.33" length="16.99" shape="202.83,197.73 208.08,191.33 211.20,183.20"/>
    </edge>
    <edge id=":C_23" function="internal">
        <lane id=":C_23_0" index="0" speed="10.36" length="19.50" shape="188.16,202.31 189.85,202.55 194.60,205.40 197.45,210.15 198.40,216.80"/>
    </edge>
    <edge id=":E_0" function="internal">
        <lane id=":E_0_0" index="0" speed="3.65" length="4.67" shape="400.00,201.60 401.20,200.80 401.60,200.00 401.20,199.20 400.00,198.40"/>
    </edge>
    <edge id=":N_0" function="internal">
        <lane id=":N_0_0" index="0" speed="3.65" length="4.67" shape="198.40,400.00 199.20,401.20 200.00,401.60 200.80,401.20 201.60,400.00"/>
    </edge>
    <edge id=":S_0" function="internal">
        <lane id=":S_0_0" index="0" speed="3.65" length="4.67" shape="201.60,-0.00 200.80,-1.20 200.00,-1.60 199.20,-1.20 198.40,-0.00"/>
    </edge>
    <edge id=":W_0" function="internal">
        <lane id=":W_0_0" index="0" speed="3.65" length="4.67" shape="0.00,198.40 -1.20,199.20 -1.60,200.00 -1.20,200.80 0.00,201.60"/>
    </edge>

    <edge id="C_E" from="C" to="E" priority="3">
        <lane id="C_E_0" index="0" speed="13.90" length="183.20" shape="216.80,211.20 400.00,211.20"/>
        <lane id="C_E_1" index="1" speed="13.90" length="183.20" shape="216.80,208.00 400.00,208.00"/>
        <lane id="C_E_2" index="2" speed="13.90" length="183.20" shape="216.80,204.80 400.00,204.80"/>
        <lane id="C_E_3" index="3" speed="13.90" length="183.20" shape="216.80,201.60 400.00,201.60"/>
    </edge>
    <edge id="C_N" from="C" to="N" priority="3">
        <lane id="C_N_0" index="0" speed="13.90" length="183.20" shape="188.80,216.80 188.80,400.00"/>
        <lane id="C_N_1" index="1" speed="13.90" length="183.20" shape="192.00,216.80 192.00,400.00"/>
        <lane id="C_N_2" index="2" speed="13.90" length="183.20" shape="195.20,216.80 195.20,400.00"/>
        <lane id="C_N_3" index="3" speed="13.90" length="183.20" shape="198.40,216.80 198.40,400.00"/>
    </edge>
    <edge id="C_S" from="C" to="S" priority="3">
        <lane id="C_S_0" index="0" speed="13.90" length="183.20" shape="211.20,183.20 211.20,-0.00"/>
        <lane id="C_S_1" index="1" speed="13.90" length="183.20" shape="208.00,183.20 208.00,-0.00"/>
        <lane id="C_S_2" index="2" speed="13.90" length="183.20" shape="204.80,183.20 204.80,-0.00"/>
        <lane id="C_S_3" index="3" speed="13.90" length="183.20" shape="201.60,183.20 201.60,-0.00"/>
    </edge>
    <edge id="C_W" from="C" to="W" priority="3">
        <lane id="C_W_0" index="0" speed="13.90" length="183.20" shape="183.20,188.80 0.00,188.80"/>
        <lane id="C_W_1" index="1" speed="13.90" length="183.20" shape="183.20,192.00 0.00,192.00"/>
        <lane id="C_W_2" index="2" speed="13.90" length="183.20" shape="183.20,195.20 0.00,195.20"/>
        <lane id="C_W_3" index="3" speed="13.90" length="183.20" shape="183.20,198.40 0.00,198.40"/>
    </edge>
    <edge id="E_in" from="E" to="C" priority="3">
        <lane id="E_in_0" index="0" speed="13.90" length="183.20" shape="400.00,188.80 216.80,188.80"/>
        <lane id="E_in_1" index="1" speed="13.90" length="183.20" shape="400.00,192.00 216.80,192.00"/>
        <lane id="E_in_2" index="2" speed="13.90" length="183.20" shape="400.00,195.20 216.80,195.20"/>
        <lane id="E_in_3" index="3" speed="13.90" length="183.20" shape="400.00,198.40 216.80,198.40"/>
    </edge>
    <edge id="N_in" from="N" to="C" priority="3">
        <lane id="N_in_0" index="0" speed="13.90" length="183.20" shape="211.20,400.00 211.20,216.80"/>
        <lane id="N_in_1" index="1" speed="13.90" length="183.20" shape="208.00,400.00 208.00,216.80"/>
        <lane id="N_in_2" index="2" speed="13.90" length="183.20" shape="204.80,400.00 204.80,216.80"/>
        <lane id="N_in_3" index="3" speed="13.90" length="183.20" shape="201.60,400.00 201.60,216.80"/>
    </edge>
    <edge id="S_in" from="S" to="C" priority="3">
        <lane id="S_in_0" index="0" speed="13.90" length="183.20" shape="188.80,-0.00 188.80,183.20"/>
        <lane id="S_in_1" index="1" speed="13.90" length="183.20" shape="192.00,-0.00 192.00,183.20"/>
        <lane id="S_in_2" index="2" speed="13.90" length="183.20" shape="195.20,-0.00 195.20,183.20"/>
        <lane id="S_in_3" index="3" speed="13.90" length="183.20" shape="198.40,-0.00 198.40,183.20"/>
    </edge>
    <edge id="W_in" from="W" to="C" priority="3">
        <lane id="W_in_0" index="0" speed="13.90" length="183.20" shape="0.00,211.20 183.20,211.20"/>
        <lane id="W_in_1" index="1" speed="13.90" length="183.20" shape="0.00,208.00 183.20,208.00"/>
        <lane id="W_in_2" index="2" speed="13.90" length="183.20" shape="0.00,204.80 183.20,204.80"/>
        <lane id="W_in_3" index="3" speed="13.90" length="183.20" shape="0.00,201.60 183.20,201.60"/>
    </edge>

    <tlLogic id="C" type="static" programID="my_program" offset="0">
        <phase duration="30" state="GrrrGrrr" name="NS_Left_Straight"/>
        <phase duration="4" state="yrrryrrr" name="NS_Yellow"/>
        <phase duration="30" state="rrGrrrGr" name="EW_Left_Straight"/>
        <phase duration="4" state="rryrrryr" name="EW_Yellow"/>
        <phase duration="15" state="rrrrGrrr" name="NS_Right"/>
        <phase duration="4" state="rrrryrrr" name="NS_Right_Yellow"/>
        <phase duration="15" state="rrrrrrrG" name="EW_Right"/>
        <phase duration="4" state="rrrrrrry" name="EW_Right_Yellow"/>
    </tlLogic>

    <junction id="C" type="traffic_light" x="200.00" y="200.00" incLanes="S_in_0 S_in_1 S_in_2 S_in_3 E_in_0 E_in_1 E_in_2 E_in_3 N_in_0 N_in_1 N_in_2 N_in_3 W_in_0 W_in_1 W_in_2 W_in_3" intLanes=":C_16_0 :C_1_0 :C_1_1 :C_17_0 :C_18_0 :C_5_0 :C_5_1 :C_19_0 :C_20_0 :C_9_0 :C_9_1 :C_21_0 :C_22_0 :C_13_0 :C_13_1 :C_23_0" shape="187.20,183.20 212.80,183.20 213.24,185.42 213.80,186.20 214.58,186.76 215.58,187.09 216.80,187.20 216.80,212.80 214.58,213.24 213.80,213.80 213.24,214.58 212.91,215.58 212.80,216.80 187.20,216.80 186.76,214.58 186.20,213.80 185.42,213.24 184.42,212.91 183.20,212.80 183.20,187.20 185.42,186.76 186.20,186.20 186.76,185.42 187.09,184.42">
        <request index="0"  response="0001011000010110" foes="0001011101111110" cont="1"/>
        <request index="1"  response="0001000000000000" foes="0111000101101001" cont="0"/>
        <request index="2"  response="0001000000000000" foes="0111000101101001" cont="0"/>
        <request index="3"  response="0000000000000111" foes="0000000000000111" cont="1"/>
        <request index="4"  response="0111011101100001" foes="0111011111100001" cont="1"/>
        <request index="5"  response="0000011000000111" foes="0001011010010111" cont="0"/>
        <request index="6"  response="0000011000000111" foes="0001011010010111" cont="0"/>
        <request index="7"  response="0000000001110000" foes="0000000001110000" cont="1"/>
        <request index="8"  response="0001011000010111" foes="0111111000010111" cont="1"/>
        <request index="9"  response="0000000000010000" foes="0110100101110001" cont="0"/>
        <request index="10" response="0000000000010000" foes="0110100101110001" cont="0"/>
        <request index="11" response="0000011100000000" foes="0000011100000000" cont="1"/>
        <request index="12" response="0110000101100111" foes="1110000101110111" cont="1"/>
        <request index="13" response="0000011100000110" foes="1001011100010110" cont="0"/>
        <request index="14" response="0000011100000110" foes="1001011100010110" cont="0"/>
        <request index="15" response="0111000000000000" foes="0111000000000000" cont="1"/>
    </junction>
    <junction id="E" type="priority" x="400.00" y="200.00" incLanes="C_E_0 C_E_1 C_E_2 C_E_3" intLanes=":E_0_0" shape="400.00,200.00 400.00,212.80 400.00,200.00">
        <request index="0" response="0" foes="0" cont="0"/>
    </junction>
    <junction id="N" type="priority" x="200.00" y="400.00" incLanes="C_N_0 C_N_1 C_N_2 C_N_3" intLanes=":N_0_0" shape="200.00,400.00 187.20,400.00 200.00,400.00">
        <request index="0" response="0" foes="0" cont="0"/>
    </junction>
    <junction id="S" type="priority" x="200.00" y="-0.00" incLanes="C_S_0 C_S_1 C_S_2 C_S_3" intLanes=":S_0_0" shape="200.00,0.00 212.80,0.00 200.00,0.00">
        <request index="0" response="0" foes="0" cont="0"/>
    </junction>
    <junction id="W" type="priority" x="0.00" y="200.00" incLanes="C_W_0 C_W_1 C_W_2 C_W_3" intLanes=":W_0_0" shape="0.00,200.00 0.00,187.20 0.00,200.00">
        <request index="0" response="0" foes="0" cont="0"/>
    </junction>

    <junction id=":C_16_0" type="internal" x="191.23" y="189.53" incLanes=":C_0_0 N_in_1 N_in_2" intLanes=":C_1_0 :C_1_1 :C_4_0 :C_5_0 :C_5_1 :C_8_0 :C_9_0 :C_9_1 :C_12_0"/>
    <junction id=":C_17_0" type="internal" x="197.69" y="188.16" incLanes=":C_3_0 S_in_1 S_in_2" intLanes=":C_0_0 :C_1_0 :C_1_1"/>
    <junction id=":C_18_0" type="internal" x="197.17" y="202.27" incLanes=":C_4_0 W_in_1 W_in_2" intLanes=":C_0_0 :C_5_0 :C_5_1 :C_8_0 :C_9_0 :C_9_1 :C_12_0 :C_13_0 :C_13_1"/>
    <junction id=":C_19_0" type="internal" x="211.84" y="197.69" incLanes=":C_7_0 E_in_1 E_in_2" intLanes=":C_4_0 :C_5_0 :C_5_1"/>
    <junction id=":C_20_0" type="internal" x="208.77" y="210.47" incLanes=":C_8_0 :C_0_0 S_in_1 S_in_2" intLanes=":C_16_0 :C_0_0 :C_1_0 :C_1_1 :C_4_0 :C_9_0 :C_9_1 :C_12_0 :C_13_0 :C_13_1"/>
    <junction id=":C_21_0" type="internal" x="202.31" y="211.84" incLanes=":C_11_0 N_in_1 N_in_2" intLanes=":C_8_0 :C_9_0 :C_9_1"/>
    <junction id=":C_22_0" type="internal" x="202.83" y="197.73" incLanes=":C_12_0 E_in_1 E_in_2" intLanes=":C_0_0 :C_1_0 :C_1_1 :C_4_0 :C_5_0 :C_5_1 :C_8_0 :C_13_0 :C_13_1"/>
    <junction id=":C_23_0" type="internal" x="188.16" y="202.31" incLanes=":C_15_0 W_in_1 W_in_2" intLanes=":C_12_0 :C_13_0 :C_13_1"/>

    <connection from="C_E" to="E_in" fromLane="3" toLane="3" via=":E_0_0" dir="T" state="M"/>
    <connection from="C_N" to="N_in" fromLane="3" toLane="3" via=":N_0_0" dir="T" state="M"/>
    <connection from="C_S" to="S_in" fromLane="3" toLane="3" via=":S_0_0" dir="T" state="M"/>
    <connection from="C_W" to="W_in" fromLane="3" toLane="3" via=":W_0_0" dir="T" state="M"/>
    <connection from="E_in" to="C_N" fromLane="3" toLane="0" via=":C_4_0" tl="C" linkIndex="3" dir="r" state="o"/>
    <connection from="E_in" to="C_W" fromLane="1" toLane="1" via=":C_5_0" tl="C" linkIndex="2" dir="s" state="o"/>
    <connection from="E_in" to="C_W" fromLane="2" toLane="2" via=":C_5_1" tl="C" linkIndex="2" dir="s" state="o"/>
    <connection from="E_in" to="C_S" fromLane="0" toLane="3" via=":C_7_0" tl="C" linkIndex="2" dir="l" state="O"/>
    <connection from="N_in" to="C_W" fromLane="3" toLane="0" via=":C_8_0" tl="C" linkIndex="5" dir="r" state="o"/>
    <connection from="N_in" to="C_S" fromLane="1" toLane="1" via=":C_9_0" tl="C" linkIndex="4" dir="s" state="O"/>
    <connection from="N_in" to="C_S" fromLane="2" toLane="2" via=":C_9_1" tl="C" linkIndex="4" dir="s" state="O"/>
    <connection from="N_in" to="C_E" fromLane="0" toLane="3" via=":C_11_0" tl="C" linkIndex="4" dir="l" state="O"/>
    <connection from="S_in" to="C_E" fromLane="3" toLane="0" via=":C_0_0" tl="C" linkIndex="1" dir="r" state="o"/>
    <connection from="S_in" to="C_N" fromLane="1" toLane="1" via=":C_1_0" tl="C" linkIndex="0" dir="s" state="O"/>
    <connection from="S_in" to="C_N" fromLane="2" toLane="2" via=":C_1_1" tl="C" linkIndex="0" dir="s" state="O"/>
    <connection from="S_in" to="C_W" fromLane="0" toLane="3" via=":C_3_0" tl="C" linkIndex="0" dir="l" state="O"/>
    <connection from="W_in" to="C_S" fromLane="3" toLane="0" via=":C_12_0" tl="C" linkIndex="7" dir="r" state="o"/>
    <connection from="W_in" to="C_E" fromLane="1" toLane="1" via=":C_13_0" tl="C" linkIndex="6" dir="s" state="o"/>
    <connection from="W_in" to="C_E" fromLane="2" toLane="2" via=":C_13_1" tl="C" linkIndex="6" dir="s" state="o"/>
    <connection from="W_in" to="C_N" fromLane="0" toLane="3" via=":C_15_0" tl="C" linkIndex="6" dir="l" state="O"/>

    <connection from=":C_0" to="C_E" fromLane="0" toLane="0" via=":C_16_0" dir="r" state="m"/>
    <connection from=":C_16" to="C_E" fromLane="0" toLane="0" dir="r" state="M"/>
    <connection from=":C_1" to="C_N" fromLane="0" toLane="1" dir="s" state="M"/>
    <connection from=":C_1" to="C_N" fromLane="1" toLane="2" dir="s" state="M"/>
    <connection from=":C_3" to="C_W" fromLane="0" toLane="3" via=":C_17_0" dir="l" state="m"/>
    <connection from=":C_17" to="C_W" fromLane="0" toLane="3" dir="l" state="M"/>
    <connection from=":C_4" to="C_N" fromLane="0" toLane="0" via=":C_18_0" dir="r" state="m"/>
    <connection from=":C_18" to="C_N" fromLane="0" toLane="0" dir="r" state="M"/>
    <connection from=":C_5" to="C_W" fromLane="0" toLane="1" dir="s" state="M"/>
    <connection from=":C_5" to="C_W" fromLane="1" toLane="2" dir="s" state="M"/>
    <connection from=":C_7" to="C_S" fromLane="0" toLane="3" via=":C_19_0" dir="l" state="m"/>
    <connection from=":C_19" to="C_S" fromLane="0" toLane="3" dir="l" state="M"/>
    <connection from=":C_8" to="C_W" fromLane="0" toLane="0" via=":C_20_0" dir="r" state="m"/>
    <connection from=":C_20" to="C_W" fromLane="0" toLane="0" dir="r" state="M"/>
    <connection from=":C_9" to="C_S" fromLane="0" toLane="1" dir="s" state="M"/>
    <connection from=":C_9" to="C_S" fromLane="1" toLane="2" dir="s" state="M"/>
    <connection from=":C_11" to="C_E" fromLane="0" toLane="3" via=":C_21_0" dir="l" state="m"/>
    <connection from=":C_21" to="C_E" fromLane="0" toLane="3" dir="l" state="M"/>
    <connection from=":C_12" to="C_S" fromLane="0" toLane="0" via=":C_22_0" dir="r" state="m"/>
    <connection from=":C_22" to="C_S" fromLane="0" toLane="0" dir="r" state="M"/>
    <connection from=":C_13" to="C_E" fromLane="0" toLane="1" dir="s" state="M"/>
    <connection from=":C_13" to="C_E" fromLane="1" toLane="2" dir="s" state="M"/>
    <connection from=":C_15" to="C_N" fromLane="0" toLane="3" via=":C_23_0" dir="l" state="m"/>
    <connection from=":C_23" to="C_N" fromLane="0" toLane="3" dir="l" state="M"/>
    <connection from=":E_0" to="E_in" fromLane="0" toLane="3" dir="T" state="M"/>
    <connection from=":N_0" to="N_in" fromLane="0" toLane="3" dir="T" state="M"/>
    <connection from=":S_0" to="S_in" fromLane="0" toLane="3" dir="T" state="M"/>
    <connection from=":W_0" to="W_in" fromLane="0" toLane="3" dir="T" state="M"/>

</net>
