<?xml version="1.0" encoding="UTF-8"?>

<!-- generated on 2025-09-06 21:49:29 by Eclipse SUMO netedit Version 1.20.0
<configuration xmlns:xsi="http://www.w3.org/2001/XMLSchema-instance" xsi:noNamespaceSchemaLocation="http://sumo.dlr.de/xsd/neteditConfiguration.xsd">

    <input>
        <sumo-net-file value="/Users/aksharjain/Traffic-simulation-rl/Sumo_env/gpt_newint/intersection.net.xml"/>
    </input>

    <processing>
        <geometry.min-radius.fix.railways value="false"/>
        <geometry.max-grade.fix value="false"/>
        <offset.disable-normalization value="true"/>
        <lefthand value="1"/>
    </processing>

    <junctions>
        <no-turnarounds value="true"/>
        <junctions.corner-detail value="5"/>
        <junctions.limit-turn-speed value="5.50"/>
        <rectangular-lane-cut value="0"/>
    </junctions>

    <pedestrian>
        <walkingareas value="0"/>
    </pedestrian>

</configuration>
-->

<additional xmlns:xsi="http://www.w3.org/2001/XMLSchema-instance" xsi:noNamespaceSchemaLocation="http://sumo.dlr.de/xsd/additional_file.xsd">
    <tlLogic id="C" type="static" programID="my_program" offset="0">
        <phase duration="30" state="GGGrrrrrGGGrrrrr" name="NS_Left_Straight"/>
        <phase duration="4"  state="yyyrrrrryyyrrrrr" name="NS_Yellow"/>
        <phase duration="30" state="rrrrGGGrrrrrGGGr" name="EW_Left_Straight"/>
        <phase duration="4"  state="rrrryyyrrrrryyyr" name="EW_Yellow"/>
        <phase duration="15" state="rrrGrrrrrrrGrrrr" name="NS_Right"/>
        <phase duration="4"  state="rrryrrrrrrryrrrr" name="NS_Right_Yellow"/>
        <phase duration="15" state="rrrrrrrGrrrrrrrG" name="EW_Right"/>
        <phase duration="4"  state="rrrrrrryrrrrrrry" name="EW_Right_Yellow"/>
    </tlLogic>
</additional>
